1IZH
 OpenBabel11252210453D

 99101  0  0  1  0  0  0  0  0999 V2000
    9.1190   -5.0020   16.4760 C   0  0  0  0  0  0  0  0  0  0  0  0
    9.8990   -5.2940   17.7630 C   0  0  0  0  0  0  0  0  0  0  0  0
    8.9530   -6.2430   15.6050 C   0  0  0  0  0  0  0  0  0  0  0  0
    9.6510   -3.7890   15.7160 C   0  0  0  0  0  0  0  0  0  0  0  0
    7.7720   -4.6390   17.0290 O   0  0  0  0  0  0  0  0  0  0  0  0
    6.8180   -4.0910   16.2030 C   0  0  0  0  0  0  0  0  0  0  0  0
    6.7790   -4.1800   14.9820 O   0  0  0  0  0  0  0  0  0  0  0  0
    5.8910   -3.4060   16.9740 N   0  0  0  0  0  0  0  0  0  0  0  0
    4.6850   -2.8280   16.3320 C   0  0  1  0  0  0  0  0  0  0  0  0
    3.4320   -3.1260   17.1800 C   0  0  0  0  0  0  0  0  0  0  0  0
    3.1360   -4.6030   17.1780 C   0  0  0  0  0  0  0  0  0  0  0  0
    3.4360   -5.3930   18.2980 C   0  0  0  0  0  0  0  0  0  0  0  0
    3.2020   -6.7710   18.2700 C   0  0  0  0  0  0  0  0  0  0  0  0
    2.6670   -7.3720   17.1270 C   0  0  0  0  0  0  0  0  0  0  0  0
    2.3550   -6.5850   16.0130 C   0  0  0  0  0  0  0  0  0  0  0  0
    2.5860   -5.2080   16.0350 C   0  0  0  0  0  0  0  0  0  0  0  0
    4.8770   -1.3030   16.0550 C   0  0  1  0  0  0  0  0  0  0  0  0
    4.9370   -0.5540   17.2800 O   0  0  0  0  0  0  0  0  0  0  0  0
    6.1160   -1.0280   15.1870 C   0  0  0  0  0  0  0  0  0  0  0  0
    6.0220    0.3480   14.5080 C   0  0  1  0  0  0  0  0  0  0  0  0
    7.4080    0.9090   14.1090 C   0  0  0  0  0  0  0  0  0  0  0  0
    7.6370    0.9880   12.6270 C   0  0  0  0  0  0  0  0  0  0  0  0
    8.0560   -0.1370   11.9000 C   0  0  0  0  0  0  0  0  0  0  0  0
    8.2080   -0.0490   10.5140 C   0  0  0  0  0  0  0  0  0  0  0  0
    7.9560    1.1570    9.8510 C   0  0  0  0  0  0  0  0  0  0  0  0
    7.5830    2.2900   10.5800 C   0  0  0  0  0  0  0  0  0  0  0  0
    7.4180    2.2060   11.9640 C   0  0  0  0  0  0  0  0  0  0  0  0
    5.0720    0.2390   13.3100 C   0  0  0  0  0  0  0  0  0  0  0  0
    4.8910   -0.8010   12.6920 O   0  0  0  0  0  0  0  0  0  0  0  0
    4.3720    1.4160   13.0100 N   0  0  0  0  0  0  0  0  0  0  0  0
    3.4590    1.5190   11.8530 C   0  0  1  0  0  0  0  0  0  0  0  0
    2.0120    1.1430   12.2590 C   0  0  0  0  0  0  0  0  0  0  0  0
    0.9610    1.4700   11.1940 C   0  0  0  0  0  0  0  0  0  0  0  0
    0.4760    2.9110   11.2940 C   0  0  0  0  0  0  0  0  0  0  0  0
    0.4460    3.5370   12.3400 O   0  0  0  0  0  0  0  0  0  0  0  0
   -0.0100    3.4710   10.1110 N   0  0  0  0  0  0  0  0  0  0  0  0
    3.4940    2.9690   11.2990 C   0  0  0  0  0  0  0  0  0  0  0  0
    3.5030    3.9730   11.9880 O   0  0  0  0  0  0  0  0  0  0  0  0
    3.4630    3.0260    9.8960 N   0  0  0  0  0  0  0  0  0  0  0  0
    3.3870    4.2930    9.1530 C   0  0  1  0  0  0  0  0  0  0  0  0
    4.7220    4.7050    8.4890 C   0  0  0  0  0  0  0  0  0  0  0  0
    5.0850    3.9440    7.2430 C   0  0  0  0  0  0  0  0  0  0  0  0
    5.7030    2.6880    7.3250 C   0  0  0  0  0  0  0  0  0  0  0  0
    6.1370    2.0400    6.1650 C   0  0  0  0  0  0  0  0  0  0  0  0
    5.9120    2.6160    4.9110 C   0  0  0  0  0  0  0  0  0  0  0  0
    5.2600    3.8500    4.8210 C   0  0  0  0  0  0  0  0  0  0  0  0
    4.8550    4.5160    5.9800 C   0  0  0  0  0  0  0  0  0  0  0  0
    2.2990    4.1840    8.0550 C   0  0  0  0  0  0  0  0  0  0  0  0
    1.9700    3.1530    7.4870 O   0  0  0  0  0  0  0  0  0  0  0  0
    1.6710    5.3900    7.7490 N   0  0  0  0  0  0  0  0  0  0  0  0
   10.2330   -4.3550   18.2550 H   0  0  0  0  0  0  0  0  0  0  0  0
    9.2650   -5.8810   18.4650 H   0  0  0  0  0  0  0  0  0  0  0  0
   10.8070   -5.8950   17.5140 H   0  0  0  0  0  0  0  0  0  0  0  0
    8.0570   -6.1260   14.9510 H   0  0  0  0  0  0  0  0  0  0  0  0
    9.8540   -6.3940   14.9740 H   0  0  0  0  0  0  0  0  0  0  0  0
    8.7990   -7.1530   16.2300 H   0  0  0  0  0  0  0  0  0  0  0  0
   10.7380   -3.9050   15.5230 H   0  0  0  0  0  0  0  0  0  0  0  0
    9.1230   -3.6730   14.7410 H   0  0  0  0  0  0  0  0  0  0  0  0
    9.4980   -2.8630   16.3150 H   0  0  0  0  0  0  0  0  0  0  0  0
    5.9490   -3.3770   17.9990 H   0  0  0  0  0  0  0  0  0  0  0  0
    4.5480   -3.3200   15.3240 H   0  0  0  0  0  0  0  0  0  0  0  0
    2.5590   -2.5640   16.7650 H   0  0  0  0  0  0  0  0  0  0  0  0
    3.5830   -2.7510   18.2230 H   0  0  0  0  0  0  0  0  0  0  0  0
    3.8520   -4.9350   19.1970 H   0  0  0  0  0  0  0  0  0  0  0  0
    3.4380   -7.3790   19.1480 H   0  0  0  0  0  0  0  0  0  0  0  0
    2.4890   -8.4490   17.1110 H   0  0  0  0  0  0  0  0  0  0  0  0
    1.9240   -7.0450   15.1260 H   0  0  0  0  0  0  0  0  0  0  0  0
    2.3270   -4.6020   15.1660 H   0  0  0  0  0  0  0  0  0  0  0  0
    3.9400   -0.9140   15.5820 H   0  0  0  0  0  0  0  0  0  0  0  0
    5.8830   -0.2120   17.4430 H   0  0  0  0  0  0  0  0  0  0  0  0
    6.2640   -1.8200   14.4210 H   0  0  0  0  0  0  0  0  0  0  0  0
    7.0190   -1.0360   15.8520 H   0  0  0  0  0  0  0  0  0  0  0  0
    5.6080    1.0660   15.2670 H   0  0  0  0  0  0  0  0  0  0  0  0
    8.2100    0.2970   14.5940 H   0  0  0  0  0  0  0  0  0  0  0  0
    7.4890    1.9350   14.5580 H   0  0  0  0  0  0  0  0  0  0  0  0
    8.2660   -1.0730   12.4170 H   0  0  0  0  0  0  0  0  0  0  0  0
    8.5260   -0.9190    9.9410 H   0  0  0  0  0  0  0  0  0  0  0  0
    8.0490    1.2200    8.7680 H   0  0  0  0  0  0  0  0  0  0  0  0
    7.4260    3.2430   10.0720 H   0  0  0  0  0  0  0  0  0  0  0  0
    7.1180    3.0890   12.5310 H   0  0  0  0  0  0  0  0  0  0  0  0
    4.5380    2.2780   13.5630 H   0  0  0  0  0  0  0  0  0  0  0  0
    3.8160    0.7940   11.0650 H   0  0  0  0  0  0  0  0  0  0  0  0
    1.7420    1.6630   13.2090 H   0  0  0  0  0  0  0  0  0  0  0  0
    1.9970    0.0370   12.4440 H   0  0  0  0  0  0  0  0  0  0  0  0
    0.0690    0.8070   11.3590 H   0  0  0  0  0  0  0  0  0  0  0  0
    1.3640    1.2300   10.1770 H   0  0  0  0  0  0  0  0  0  0  0  0
    0.1440    3.0460    9.2030 H   0  0  0  0  0  0  0  0  0  0  0  0
   -0.3650    4.4500   10.0940 H   0  0  0  0  0  0  0  0  0  0  0  0
    3.4580    2.1550    9.3330 H   0  0  0  0  0  0  0  0  0  0  0  0
    3.1110    5.1170    9.8810 H   0  0  0  0  0  0  0  0  0  0  0  0
    5.5440    4.5980    9.2450 H   0  0  0  0  0  0  0  0  0  0  0  0
    4.6460    5.8010    8.2560 H   0  0  0  0  0  0  0  0  0  0  0  0
    5.8500    2.2180    8.2990 H   0  0  0  0  0  0  0  0  0  0  0  0
    6.6580    1.0800    6.2380 H   0  0  0  0  0  0  0  0  0  0  0  0
    6.2500    2.1090    4.0020 H   0  0  0  0  0  0  0  0  0  0  0  0
    5.0780    4.3050    3.8420 H   0  0  0  0  0  0  0  0  0  0  0  0
    4.3670    5.4930    5.8990 H   0  0  0  0  0  0  0  0  0  0  0  0
    1.9890    6.2840    8.1370 H   0  0  0  0  0  0  0  0  0  0  0  0
    0.9960    5.4590    6.9830 H   0  0  0  0  0  0  0  0  0  0  0  0
  1  2  1  0  0  0  0
  1  3  1  0  0  0  0
  1  4  1  0  0  0  0
  1  5  1  0  0  0  0
  2 51  1  0  0  0  0
  2 52  1  0  0  0  0
  2 53  1  0  0  0  0
  3 54  1  0  0  0  0
  3 55  1  0  0  0  0
  3 56  1  0  0  0  0
  4 57  1  0  0  0  0
  4 58  1  0  0  0  0
  4 59  1  0  0  0  0
  5  6  1  0  0  0  0
  6  7  2  0  0  0  0
  6  8  1  0  0  0  0
  8  9  1  0  0  0  0
  8 60  1  0  0  0  0
  9 10  1  0  0  0  0
  9 17  1  0  0  0  0
  9 61  1  6  0  0  0
 10 11  1  0  0  0  0
 10 62  1  0  0  0  0
 10 63  1  0  0  0  0
 11 12  2  0  0  0  0
 11 16  1  0  0  0  0
 12 13  1  0  0  0  0
 12 64  1  0  0  0  0
 13 14  2  0  0  0  0
 13 65  1  0  0  0  0
 14 15  1  0  0  0  0
 14 66  1  0  0  0  0
 15 16  2  0  0  0  0
 15 67  1  0  0  0  0
 16 68  1  0  0  0  0
 17 18  1  0  0  0  0
 17 19  1  0  0  0  0
 17 69  1  6  0  0  0
 18 70  1  0  0  0  0
 19 20  1  0  0  0  0
 19 71  1  0  0  0  0
 19 72  1  0  0  0  0
 20 21  1  0  0  0  0
 20 28  1  0  0  0  0
 20 73  1  1  0  0  0
 21 22  1  0  0  0  0
 21 74  1  0  0  0  0
 21 75  1  0  0  0  0
 22 23  2  0  0  0  0
 22 27  1  0  0  0  0
 23 24  1  0  0  0  0
 23 76  1  0  0  0  0
 24 25  2  0  0  0  0
 24 77  1  0  0  0  0
 25 26  1  0  0  0  0
 25 78  1  0  0  0  0
 26 27  2  0  0  0  0
 26 79  1  0  0  0  0
 27 80  1  0  0  0  0
 28 29  2  0  0  0  0
 28 30  1  0  0  0  0
 30 31  1  0  0  0  0
 30 81  1  0  0  0  0
 31 32  1  0  0  0  0
 31 37  1  0  0  0  0
 31 82  1  6  0  0  0
 32 33  1  0  0  0  0
 32 83  1  0  0  0  0
 32 84  1  0  0  0  0
 33 34  1  0  0  0  0
 33 85  1  0  0  0  0
 33 86  1  0  0  0  0
 34 35  2  0  0  0  0
 34 36  1  0  0  0  0
 36 87  1  0  0  0  0
 36 88  1  0  0  0  0
 37 38  2  0  0  0  0
 37 39  1  0  0  0  0
 39 40  1  0  0  0  0
 39 89  1  0  0  0  0
 40 41  1  0  0  0  0
 40 48  1  0  0  0  0
 40 90  1  1  0  0  0
 41 42  1  0  0  0  0
 41 91  1  0  0  0  0
 41 92  1  0  0  0  0
 42 43  2  0  0  0  0
 42 47  1  0  0  0  0
 43 44  1  0  0  0  0
 43 93  1  0  0  0  0
 44 45  2  0  0  0  0
 44 94  1  0  0  0  0
 45 46  1  0  0  0  0
 45 95  1  0  0  0  0
 46 47  2  0  0  0  0
 46 96  1  0  0  0  0
 47 97  1  0  0  0  0
 48 49  2  0  0  0  0
 48 50  1  0  0  0  0
 50 98  1  0  0  0  0
 50 99  1  0  0  0  0
M  END
>  <charge>
0

>  <KI_NM>
0.021

>  <number_of_rotatable_bonds>
23

>  <lm5_entropy_jk>
43.79390162832084

>  <ligand_crystal_conformation>
A

$$$$
