4qxi.pdb
 OpenBabel11252210453D

 37 38  0  0  0  0  0  0  0  0999 V2000
   14.2220  -11.7650   18.7750 Cl  0  0  0  0  0  0  0  0  0  0  0  0
   17.0250   -7.6480   17.5010 O   0  0  0  0  0  0  0  0  0  0  0  0
   15.2960   -3.8600    9.4790 N   0  0  0  0  0  0  0  0  0  0  0  0
   16.7330   -6.9170   18.7290 C   0  0  0  0  0  0  0  0  0  0  0  0
   15.5550   -5.9270   18.4220 C   0  0  0  0  0  0  0  0  0  0  0  0
   15.2460   -5.7610   17.2320 O   0  5  0  0  0  0  0  0  0  0  0  0
   18.2870   -8.9860   14.1490 O   0  0  0  0  0  0  0  0  0  0  0  0
   15.2620  -10.8540   17.7210 C   0  0  0  0  0  0  0  0  0  0  0  0
   15.6180   -9.5700   18.1090 C   0  0  0  0  0  0  0  0  0  0  0  0
   16.4380  -10.6610   15.6430 C   0  0  0  0  0  0  0  0  0  0  0  0
   17.3000   -4.2490   10.8130 C   0  0  0  0  0  0  0  0  0  0  0  0
   16.4350   -8.8290   17.2330 C   0  0  0  0  0  0  0  0  0  0  0  0
   15.8270   -5.8450   12.6000 C   0  0  0  0  0  0  0  0  0  0  0  0
   16.7660   -9.3370   15.9450 C   0  0  0  0  0  0  0  0  0  0  0  0
   17.8860   -4.8680   11.9120 C   0  0  0  0  0  0  0  0  0  0  0  0
   15.6870  -11.4410   16.5330 C   0  0  0  0  0  0  0  0  0  0  0  0
   15.1880   -5.2460   11.5130 C   0  0  0  0  0  0  0  0  0  0  0  0
   15.9130   -4.4300   10.6200 C   0  0  0  0  0  0  0  0  0  0  0  0
   17.9330   -6.2280   14.0390 C   0  0  0  0  0  0  0  0  0  0  0  0
   17.4740   -8.4990   14.9300 C   0  0  0  0  0  0  0  0  0  0  0  0
   17.1340   -7.1490   14.8770 N   0  0  0  0  0  0  0  0  0  0  0  0
   17.1980   -5.6730   12.8380 C   0  0  0  0  0  0  0  0  0  0  0  0
   15.0180   -5.4240   19.4270 O   0  0  0  0  0  0  0  0  0  0  0  0
   19.1940   -4.6600   12.0910 F   0  0  0  0  0  0  0  0  0  0  0  0
   16.5480   -6.6990   15.6050 H   0  0  0  0  0  0  0  0  0  0  0  0
   14.2670   -3.7480    9.5130 H   0  0  0  0  0  0  0  0  0  0  0  0
   17.7070   -6.4080   18.8890 H   0  0  0  0  0  0  0  0  0  0  0  0
   15.2890   -9.1770   19.0680 H   0  0  0  0  0  0  0  0  0  0  0  0
   16.7400  -11.1090   14.6890 H   0  0  0  0  0  0  0  0  0  0  0  0
   17.8730   -3.6200   10.1350 H   0  0  0  0  0  0  0  0  0  0  0  0
   15.2230   -6.4340   13.2970 H   0  0  0  0  0  0  0  0  0  0  0  0
   15.4330  -12.4720   16.2840 H   0  0  0  0  0  0  0  0  0  0  0  0
   14.1150   -5.3800   11.3730 H   0  0  0  0  0  0  0  0  0  0  0  0
   18.8560   -6.7690   13.6820 H   0  0  0  0  0  0  0  0  0  0  0  0
   18.2450   -5.3560   14.6810 H   0  0  0  0  0  0  0  0  0  0  0  0
   15.7620   -3.0430    9.0850 H   0  0  0  0  0  0  0  0  0  0  0  0
   16.5110   -7.6040   19.5590 H   0  0  0  0  0  0  0  0  0  0  0  0
  1  8  1  0  0  0  0
  2  4  1  0  0  0  0
  2 12  1  0  0  0  0
  3 18  1  0  0  0  0
  3 26  1  0  0  0  0
  3 36  1  0  0  0  0
  4  5  1  0  0  0  0
  4 27  1  0  0  0  0
  4 37  1  0  0  0  0
  5  6  1  0  0  0  0
  5 23  2  0  0  0  0
  7 20  2  0  0  0  0
  8  9  2  0  0  0  0
  8 16  1  0  0  0  0
  9 12  1  0  0  0  0
  9 28  1  0  0  0  0
 10 14  1  0  0  0  0
 10 16  2  0  0  0  0
 10 29  1  0  0  0  0
 11 15  2  0  0  0  0
 11 18  1  0  0  0  0
 11 30  1  0  0  0  0
 12 14  2  0  0  0  0
 13 17  1  0  0  0  0
 13 22  2  0  0  0  0
 13 31  1  0  0  0  0
 14 20  1  0  0  0  0
 15 22  1  0  0  0  0
 15 24  1  0  0  0  0
 16 32  1  0  0  0  0
 17 18  2  0  0  0  0
 17 33  1  0  0  0  0
 19 21  1  0  0  0  0
 19 22  1  0  0  0  0
 19 34  1  0  0  0  0
 19 35  1  0  0  0  0
 20 21  1  0  0  0  0
 21 25  1  0  0  0  0
M  CHG  1   6  -1
M  END
>  <deltaG_kcalmol>
-9.59

>  <charge>
-1

>  <lm5_entropy_jk>
21.38770610149616

>  <number_of_rotatable_bonds>
7

$$$$
