4GUY
 OpenBabel11252210453D

 35 35  0  0  0  0  0  0  0  0999 V2000
    6.5550   24.6210    5.0340 C   0  0  0  0  0  0  0  0  0  0  0  0
    7.5680   26.1440    2.5860 N   0  0  0  0  0  0  0  0  0  0  0  0
    1.3220   23.0140    6.7460 O   0  0  0  0  0  0  0  0  0  0  0  0
    7.9500   26.9390    3.9440 S   0  0  0  0  0  0  0  0  0  0  0  0
    5.1520   24.2030    5.4740 C   0  0  0  0  0  0  0  0  0  0  0  0
    9.1630   23.8020    0.0570 N   0  0  0  0  0  0  0  0  0  0  0  0
    6.9700   24.4170    0.2320 O   0  0  0  0  0  0  0  0  0  0  0  0
    4.9860   23.1350    6.3740 C   0  0  0  0  0  0  0  0  0  0  0  0
    9.2130   26.3900    4.3910 O   0  0  0  0  0  0  0  0  0  0  0  0
    3.6950   22.7410    6.7790 C   0  0  0  0  0  0  0  0  0  0  0  0
    8.9090   22.6890   -0.8520 O   0  0  0  0  0  0  0  0  0  0  0  0
    2.5650   23.3940    6.2830 C   0  0  0  0  0  0  0  0  0  0  0  0
    7.6890   28.3460    3.7630 O   0  0  0  0  0  0  0  0  0  0  0  0
    4.0060   24.8180    4.9340 C   0  0  0  0  0  0  0  0  0  0  0  0
    2.7230   24.4240    5.3490 C   0  0  0  0  0  0  0  0  0  0  0  0
    6.7240   26.2270    4.8870 C   0  0  0  0  0  0  0  0  0  0  0  0
    0.0910   23.6530    6.3170 C   0  0  0  0  0  0  0  0  0  0  0  0
    8.1470   24.5820    0.5610 C   0  0  0  0  0  0  0  0  0  0  0  0
    8.6170   25.6650    1.5530 C   0  0  0  0  0  0  0  0  0  0  0  0
    7.3010   24.2230    5.7460 H   0  0  0  0  0  0  0  0  0  0  0  0
    6.7640   24.0520    4.1090 H   0  0  0  0  0  0  0  0  0  0  0  0
    7.2560   25.4020    3.2070 H   0  0  0  0  0  0  0  0  0  0  0  0
   10.1260   23.9450    0.3580 H   0  0  0  0  0  0  0  0  0  0  0  0
    5.8590   22.6260    6.7780 H   0  0  0  0  0  0  0  0  0  0  0  0
    3.5600   21.9330    7.4910 H   0  0  0  0  0  0  0  0  0  0  0  0
    8.9100   21.8750   -0.2610 H   0  0  0  0  0  0  0  0  0  0  0  0
    4.1010   25.6000    4.1900 H   0  0  0  0  0  0  0  0  0  0  0  0
    1.8570   24.9330    4.9410 H   0  0  0  0  0  0  0  0  0  0  0  0
    5.9150   26.7680    4.3900 H   0  0  0  0  0  0  0  0  0  0  0  0
    7.0220   26.7400    5.8050 H   0  0  0  0  0  0  0  0  0  0  0  0
   -0.7800   23.2070    6.8160 H   0  0  0  0  0  0  0  0  0  0  0  0
   -0.0470   23.5410    5.2330 H   0  0  0  0  0  0  0  0  0  0  0  0
    0.1040   24.7270    6.5530 H   0  0  0  0  0  0  0  0  0  0  0  0
    8.9870   26.4960    0.9270 H   0  0  0  0  0  0  0  0  0  0  0  0
    9.5080   25.2540    2.0610 H   0  0  0  0  0  0  0  0  0  0  0  0
  1 16  1  0  0  0  0
  1  5  1  0  0  0  0
  1 20  1  0  0  0  0
  1 21  1  0  0  0  0
  2 19  1  0  0  0  0
  2  4  1  0  0  0  0
  2 22  1  0  0  0  0
  3 12  1  0  0  0  0
  3 17  1  0  0  0  0
  4  9  2  0  0  0  0
  4 16  1  0  0  0  0
  4 13  2  0  0  0  0
  5 14  2  0  0  0  0
  5  8  1  0  0  0  0
  6 11  1  0  0  0  0
  6 18  1  0  0  0  0
  6 23  1  0  0  0  0
  7 18  2  0  0  0  0
  8 10  2  0  0  0  0
  8 24  1  0  0  0  0
 10 12  1  0  0  0  0
 10 25  1  0  0  0  0
 11 26  1  0  0  0  0
 12 15  2  0  0  0  0
 14 15  1  0  0  0  0
 14 27  1  0  0  0  0
 15 28  1  0  0  0  0
 16 29  1  0  0  0  0
 16 30  1  0  0  0  0
 17 31  1  0  0  0  0
 17 32  1  0  0  0  0
 17 33  1  0  0  0  0
 18 19  1  0  0  0  0
 19 34  1  0  0  0  0
 19 35  1  0  0  0  0
M  END
>  <COMPND>
4guy.pdb

>  <AUTHOR>
GENERATED BY OPEN BABEL 2.3.1

>  <MASTER>
0    0    0    0    0    0    0    0   35    0   35    0

>  <lm5_entropy_jk>
33.27680186251505

>  <number_of_rotatable_bonds>
8

>  <deltaG_kcalmol>
-10.92

>  <charge>
0

$$$$
