4GUY
 OpenBabel11252210453D

 35 35  0  0  0  0  0  0  0  0999 V2000
    6.6340   24.3650    4.5730 C   0  0  0  0  0  0  0  0  0  0  0  0
    7.6920   26.0920    2.3460 N   0  0  0  0  0  0  0  0  0  0  0  0
    1.4500   22.7610    6.3940 O   0  0  0  0  0  0  0  0  0  0  0  0
    8.0460   26.7910    3.7600 S   0  0  0  0  0  0  0  0  0  0  0  0
    5.2410   23.9040    4.9940 C   0  0  0  0  0  0  0  0  0  0  0  0
    9.2190   23.7360   -0.2430 N   0  0  0  0  0  0  0  0  0  0  0  0
    7.0250   24.2320    0.1720 O   0  0  0  0  0  0  0  0  0  0  0  0
    5.0910   22.7880    5.8370 C   0  0  0  0  0  0  0  0  0  0  0  0
    9.2890   26.2200    4.2290 O   0  0  0  0  0  0  0  0  0  0  0  0
    3.8070   22.3840    6.2570 C   0  0  0  0  0  0  0  0  0  0  0  0
    8.9470   22.5200   -1.0090 O   0  0  0  0  0  0  0  0  0  0  0  0
    2.6740   23.0850    5.8430 C   0  0  0  0  0  0  0  0  0  0  0  0
    7.7650   28.2020    3.6910 O   0  0  0  0  0  0  0  0  0  0  0  0
    4.0890   24.5440    4.5050 C   0  0  0  0  0  0  0  0  0  0  0  0
    2.8150   24.1440    4.9400 C   0  0  0  0  0  0  0  0  0  0  0  0
    6.7990   25.9840    4.6010 C   0  0  0  0  0  0  0  0  0  0  0  0
    0.2490   23.5380    6.1460 C   0  0  0  0  0  0  0  0  0  0  0  0
    8.2220   24.4450    0.3880 C   0  0  0  0  0  0  0  0  0  0  0  0
    8.7450   25.4990    1.3820 C   0  0  0  0  0  0  0  0  0  0  0  0
    7.3940   23.8880    5.2190 H   0  0  0  0  0  0  0  0  0  0  0  0
    6.8260   23.8930    3.5930 H   0  0  0  0  0  0  0  0  0  0  0  0
    7.2380   25.3810    2.9110 H   0  0  0  0  0  0  0  0  0  0  0  0
   10.1960   23.9940   -0.1150 H   0  0  0  0  0  0  0  0  0  0  0  0
    5.9720   22.2580    6.1880 H   0  0  0  0  0  0  0  0  0  0  0  0
    3.6790   21.5450    6.9330 H   0  0  0  0  0  0  0  0  0  0  0  0
    8.9980   21.7720   -0.3450 H   0  0  0  0  0  0  0  0  0  0  0  0
    4.1730   25.3620    3.8000 H   0  0  0  0  0  0  0  0  0  0  0  0
    1.9430   24.6800    4.5890 H   0  0  0  0  0  0  0  0  0  0  0  0
    5.9940   26.5760    4.1550 H   0  0  0  0  0  0  0  0  0  0  0  0
    7.0880   26.3920    5.5750 H   0  0  0  0  0  0  0  0  0  0  0  0
   -0.5980   23.1510    6.7280 H   0  0  0  0  0  0  0  0  0  0  0  0
   -0.0220   23.5010    5.0820 H   0  0  0  0  0  0  0  0  0  0  0  0
    0.4000   24.5930    6.4180 H   0  0  0  0  0  0  0  0  0  0  0  0
    9.2300   26.2810    0.7720 H   0  0  0  0  0  0  0  0  0  0  0  0
    9.5570   25.0000    1.9440 H   0  0  0  0  0  0  0  0  0  0  0  0
  1 16  1  0  0  0  0
  1  5  1  0  0  0  0
  1 20  1  0  0  0  0
  1 21  1  0  0  0  0
  2 19  1  0  0  0  0
  2  4  1  0  0  0  0
  2 22  1  0  0  0  0
  3 12  1  0  0  0  0
  3 17  1  0  0  0  0
  4  9  2  0  0  0  0
  4 16  1  0  0  0  0
  4 13  2  0  0  0  0
  5 14  2  0  0  0  0
  5  8  1  0  0  0  0
  6 11  1  0  0  0  0
  6 18  1  0  0  0  0
  6 23  1  0  0  0  0
  7 18  2  0  0  0  0
  8 10  2  0  0  0  0
  8 24  1  0  0  0  0
 10 12  1  0  0  0  0
 10 25  1  0  0  0  0
 11 26  1  0  0  0  0
 12 15  2  0  0  0  0
 14 15  1  0  0  0  0
 14 27  1  0  0  0  0
 15 28  1  0  0  0  0
 16 29  1  0  0  0  0
 16 30  1  0  0  0  0
 17 31  1  0  0  0  0
 17 32  1  0  0  0  0
 17 33  1  0  0  0  0
 18 19  1  0  0  0  0
 19 34  1  0  0  0  0
 19 35  1  0  0  0  0
M  END
>  <lm5_entropy_jk>
33.27680186251505

>  <number_of_rotatable_bonds>
8

>  <deltaG_kcalmol>
-10.92

>  <charge>
0

$$$$
