3r8z.pdb
 OpenBabel11252210453D

 30 31  0  0  1  0  0  0  0  0999 V2000
   65.7750  154.6020  -50.6950 N   0  0  0  0  0  0  0  0  0  0  0  0
   67.3970  153.5380  -52.1030 N   0  0  0  0  0  0  0  0  0  0  0  0
   68.8370  149.2980  -46.3730 N   0  0  0  0  0  0  0  0  0  0  0  0
   64.4460  155.4360  -48.8950 N   0  0  0  0  0  0  0  0  0  0  0  0
   66.8520  153.6900  -50.8720 C   0  0  0  0  0  0  0  0  0  0  0  0
   67.2760  152.9590  -49.7330 C   0  0  0  0  0  0  0  0  0  0  0  0
   68.2750  151.9430  -49.7380 C   0  0  0  0  0  0  0  0  0  0  0  0
   68.4550  151.0690  -48.5220 C   0  0  0  0  0  0  0  0  0  0  0  0
   67.3610  150.4720  -47.8900 C   0  0  0  0  0  0  0  0  0  0  0  0
   67.5880  149.6050  -46.8070 C   0  0  0  0  0  0  0  0  0  0  0  0
   69.8960  149.8630  -47.0110 C   0  0  0  0  0  0  0  0  0  0  0  0
   69.7480  150.7700  -48.0740 C   0  0  0  0  0  0  0  0  0  0  0  0
   65.3780  154.5660  -49.4030 C   0  0  0  0  0  0  0  0  0  0  0  0
   63.9140  155.2790  -47.5180 C   0  0  0  0  0  0  0  0  0  0  0  0
   62.9810  154.1070  -47.3610 C   0  0  0  0  0  0  0  0  0  0  0  0
   62.8570  153.4630  -46.2030 C   0  0  0  0  0  0  0  0  0  0  0  0
   68.9780  151.7170  -50.7220 O   0  0  0  0  0  0  0  0  0  0  0  0
   66.2920  153.3530  -48.3640 S   0  0  0  0  0  0  0  0  0  0  0  0
   67.0770  154.1160  -52.9020 H   0  0  0  0  0  0  0  0  0  0  0  0
   68.2030  152.9090  -52.2320 H   0  0  0  0  0  0  0  0  0  0  0  0
   66.3370  150.6470  -48.2140 H   0  0  0  0  0  0  0  0  0  0  0  0
   66.7440  149.1420  -46.2720 H   0  0  0  0  0  0  0  0  0  0  0  0
   70.8890  149.5620  -46.6500 H   0  0  0  0  0  0  0  0  0  0  0  0
   70.6250  151.2220  -48.5430 H   0  0  0  0  0  0  0  0  0  0  0  0
   63.7320  155.8240  -49.5520 H   0  0  0  0  0  0  0  0  0  0  0  0
   63.3320  156.2220  -47.2940 H   0  0  0  0  0  0  0  0  0  0  0  0
   64.7690  155.2080  -46.8010 H   0  0  0  0  0  0  0  0  0  0  0  0
   62.4020  153.8530  -48.2500 H   0  0  0  0  0  0  0  0  0  0  0  0
   63.4340  153.7230  -45.3150 H   0  0  0  0  0  0  0  0  0  0  0  0
   62.1700  152.6360  -46.0630 H   0  0  0  0  0  0  0  0  0  0  0  0
  1  5  1  0  0  0  0
  1 13  2  0  0  0  0
  2  5  1  0  0  0  0
  2 19  1  0  0  0  0
  2 20  1  0  0  0  0
  3 10  2  0  0  0  0
  3 11  1  0  0  0  0
  4 13  1  0  0  0  0
  4 14  1  0  0  0  0
  4 25  1  0  0  0  0
  5  6  2  0  0  0  0
  6 18  1  0  0  0  0
  7  6  1  0  0  0  0
  7  8  1  0  0  0  0
  7 17  2  0  0  0  0
  8  9  2  0  0  0  0
  8 12  1  0  0  0  0
  9 10  1  0  0  0  0
  9 21  1  0  0  0  0
 10 22  1  0  0  0  0
 11 12  2  0  0  0  0
 11 23  1  0  0  0  0
 12 24  1  0  0  0  0
 13 18  1  0  0  0  0
 14 15  1  0  0  0  0
 14 26  1  0  0  0  0
 14 27  1  0  0  0  0
 15 16  2  0  0  0  0
 15 28  1  0  0  0  0
 16 29  1  0  0  0  0
 16 30  1  0  0  0  0
M  END
>  <lm5_entropy_jk>
22.952794734129974

>  <number_of_rotatable_bonds>
5

>  <IC50_NM>
49000

>  <charge>
0

$$$$
