model16a
 OpenBabel11252210453D

 88 92  0  0  1  0  0  0  0  0999 V2000
    8.3680   -5.9080   18.1490 C   0  0  0  0  0  0  0  0  0  0  0  0
    7.7340   -4.7820   17.6320 O   0  0  0  0  0  0  0  0  0  0  0  0
    7.5900   -6.8370   18.8780 C   0  0  0  0  0  0  0  0  0  0  0  0
    6.7200   -3.2540   14.5060 O   0  0  0  0  0  0  0  0  0  0  0  0
    8.1490   -8.0490   19.3000 C   0  0  0  0  0  0  0  0  0  0  0  0
    5.6900   -3.3670   16.5180 N   0  0  0  0  0  0  0  0  0  0  0  0
    9.4960   -8.3380   19.0480 C   0  0  0  0  0  0  0  0  0  0  0  0
    6.9240    0.8840   12.3540 C   0  0  0  0  0  0  0  0  0  0  0  0
    4.2720    0.3220   13.6130 N   0  0  0  0  0  0  0  0  0  0  0  0
    5.2230    0.8360   16.3880 O   0  0  0  0  0  0  0  0  0  0  0  0
   10.2930   -7.3900   18.3940 C   0  0  0  0  0  0  0  0  0  0  0  0
    6.4660    2.0140   11.6610 C   0  0  0  0  0  0  0  0  0  0  0  0
    3.4560   -1.6400   12.8260 O   0  0  0  0  0  0  0  0  0  0  0  0
    9.7510   -6.1720   17.9550 C   0  0  0  0  0  0  0  0  0  0  0  0
    6.7070    2.1470   10.2830 C   0  0  0  0  0  0  0  0  0  0  0  0
   10.7120   -5.1780   17.3340 C   0  0  0  0  0  0  0  0  0  0  0  0
    7.4150    1.1450    9.6010 C   0  0  0  0  0  0  0  0  0  0  0  0
    6.1320   -6.5810   19.1950 C   0  0  0  0  0  0  0  0  0  0  0  0
    7.8840    0.0170   10.2950 C   0  0  0  0  0  0  0  0  0  0  0  0
    7.6330   -0.1130   11.6710 C   0  0  0  0  0  0  0  0  0  0  0  0
    7.9350   -4.3350   16.2600 C   0  0  0  0  0  0  0  0  0  0  0  0
    6.7420   -3.5950   15.6740 C   0  0  0  0  0  0  0  0  0  0  0  0
    4.3980   -2.8350   16.0900 C   0  0  1  0  0  0  0  0  0  0  0  0
    2.3470   -6.8150   15.5280 C   0  0  0  0  0  0  0  0  0  0  0  0
    2.4890   -7.6470   16.6510 C   0  0  0  0  0  0  0  0  0  0  0  0
    2.8760   -7.1000   17.8830 C   0  0  0  0  0  0  0  0  0  0  0  0
    3.1440   -5.7250   17.9810 C   0  0  0  0  0  0  0  0  0  0  0  0
    3.0430   -4.8990   16.8530 C   0  0  0  0  0  0  0  0  0  0  0  0
    2.6280   -5.4430   15.6300 C   0  0  0  0  0  0  0  0  0  0  0  0
    3.2870   -3.4150   16.9880 C   0  0  0  0  0  0  0  0  0  0  0  0
    4.3170   -1.3140   16.2770 C   0  0  0  0  0  0  0  0  0  0  0  0
    5.4420   -0.4160   15.7500 C   0  0  1  0  0  0  0  0  0  0  0  0
    5.5180   -0.2100   14.2000 C   0  0  2  0  0  0  0  0  0  0  0  0
    3.3740   -0.4260   12.8980 C   0  0  0  0  0  0  0  0  0  0  0  0
    2.2580    0.3600   12.1800 C   0  0  1  0  0  0  0  0  0  0  0  0
    1.7310    1.4870   12.9420 O   0  0  0  0  0  0  0  0  0  0  0  0
    6.6810    0.7540   13.8410 C   0  0  0  0  0  0  0  0  0  0  0  0
    1.3730    2.5290   12.1310 C   0  0  0  0  0  0  0  0  0  0  0  0
    0.8490    3.5660   12.4930 O   0  0  0  0  0  0  0  0  0  0  0  0
    1.9030    2.2880   10.8860 N   0  0  0  0  0  0  0  0  0  0  0  0
    2.6690    1.0360   10.8580 C   0  0  0  0  0  0  0  0  0  0  0  0
    1.6790    3.0820    9.7360 C   0  0  0  0  0  0  0  0  0  0  0  0
    2.7160    3.3180    8.8220 C   0  0  0  0  0  0  0  0  0  0  0  0
    2.4950    4.0930    7.6700 C   0  0  0  0  0  0  0  0  0  0  0  0
    1.2250    4.6440    7.4380 C   0  0  0  0  0  0  0  0  0  0  0  0
    0.1810    4.4200    8.3500 C   0  0  0  0  0  0  0  0  0  0  0  0
    0.4110    3.6280    9.4880 C   0  0  0  0  0  0  0  0  0  0  0  0
   10.4830   -4.1570   17.6560 H   0  0  0  0  0  0  0  0  0  0  0  0
   10.6800   -5.2260   16.2410 H   0  0  0  0  0  0  0  0  0  0  0  0
    5.4960   -7.1500   18.5110 H   0  0  0  0  0  0  0  0  0  0  0  0
    5.8040   -3.7450   17.4520 H   0  0  0  0  0  0  0  0  0  0  0  0
    4.0750    1.3090   13.6930 H   0  0  0  0  0  0  0  0  0  0  0  0
    6.0810    0.9910   16.8640 H   0  0  0  0  0  0  0  0  0  0  0  0
    7.5300   -8.7760   19.8230 H   0  0  0  0  0  0  0  0  0  0  0  0
    5.9270    2.7950   12.1940 H   0  0  0  0  0  0  0  0  0  0  0  0
    9.9270   -9.2860   19.3750 H   0  0  0  0  0  0  0  0  0  0  0  0
    6.3510    3.0270    9.7450 H   0  0  0  0  0  0  0  0  0  0  0  0
    7.5950    1.2440    8.5310 H   0  0  0  0  0  0  0  0  0  0  0  0
   11.3410   -7.6140   18.2150 H   0  0  0  0  0  0  0  0  0  0  0  0
    8.4370   -0.7560    9.7670 H   0  0  0  0  0  0  0  0  0  0  0  0
    7.9970   -0.9830   12.2120 H   0  0  0  0  0  0  0  0  0  0  0  0
    8.1000   -5.1910   15.5960 H   0  0  0  0  0  0  0  0  0  0  0  0
    4.2180   -3.0950   15.0300 H   0  0  0  0  0  0  0  0  0  0  0  0
    8.7850   -3.6530   16.1770 H   0  0  0  0  0  0  0  0  0  0  0  0
   11.7420   -5.3720   17.6550 H   0  0  0  0  0  0  0  0  0  0  0  0
    5.8750   -5.5230   19.0710 H   0  0  0  0  0  0  0  0  0  0  0  0
    5.8750   -6.8630   20.2200 H   0  0  0  0  0  0  0  0  0  0  0  0
    2.0250   -7.2320   14.5790 H   0  0  0  0  0  0  0  0  0  0  0  0
    2.2940   -8.7160   16.5760 H   0  0  0  0  0  0  0  0  0  0  0  0
    2.9660   -7.7390   18.7620 H   0  0  0  0  0  0  0  0  0  0  0  0
    3.4310   -5.3000   18.9390 H   0  0  0  0  0  0  0  0  0  0  0  0
    2.5070   -4.7950   14.7680 H   0  0  0  0  0  0  0  0  0  0  0  0
    2.3430   -2.8980   16.7840 H   0  0  0  0  0  0  0  0  0  0  0  0
    3.5130   -3.1800   18.0340 H   0  0  0  0  0  0  0  0  0  0  0  0
    4.2890   -1.1370   17.3550 H   0  0  0  0  0  0  0  0  0  0  0  0
    3.3660   -0.9510   15.8730 H   0  0  0  0  0  0  0  0  0  0  0  0
    6.4090   -0.8340   16.0810 H   0  0  0  0  0  0  0  0  0  0  0  0
    5.7290   -1.1970   13.7570 H   0  0  0  0  0  0  0  0  0  0  0  0
    1.4600   -0.3700   11.9950 H   0  0  0  0  0  0  0  0  0  0  0  0
    6.4860    1.7440   14.2710 H   0  0  0  0  0  0  0  0  0  0  0  0
    7.6040    0.4210   14.3320 H   0  0  0  0  0  0  0  0  0  0  0  0
    2.4090    0.4260    9.9790 H   0  0  0  0  0  0  0  0  0  0  0  0
    3.7540    1.2400   10.8320 H   0  0  0  0  0  0  0  0  0  0  0  0
    3.7040    2.9130    9.0170 H   0  0  0  0  0  0  0  0  0  0  0  0
    3.3100    4.2800    6.9680 H   0  0  0  0  0  0  0  0  0  0  0  0
    1.0520    5.2570    6.5530 H   0  0  0  0  0  0  0  0  0  0  0  0
   -0.8040    4.8560    8.1760 H   0  0  0  0  0  0  0  0  0  0  0  0
   -0.4000    3.4350   10.1830 H   0  0  0  0  0  0  0  0  0  0  0  0
  1  2  1  0  0  0  0
  1  3  2  0  0  0  0
  1 14  1  0  0  0  0
  2 21  1  0  0  0  0
  3  5  1  0  0  0  0
  3 18  1  0  0  0  0
  4 22  2  0  0  0  0
  5  7  2  0  0  0  0
  5 54  1  0  0  0  0
  6 22  1  0  0  0  0
  6 23  1  0  0  0  0
  6 51  1  0  0  0  0
  7 11  1  0  0  0  0
  7 56  1  0  0  0  0
  8 12  2  0  0  0  0
  8 20  1  0  0  0  0
  8 37  1  0  0  0  0
  9 33  1  0  0  0  0
  9 34  1  0  0  0  0
  9 52  1  0  0  0  0
 10 32  1  0  0  0  0
 10 53  1  0  0  0  0
 11 14  2  0  0  0  0
 11 59  1  0  0  0  0
 12 15  1  0  0  0  0
 12 55  1  0  0  0  0
 13 34  2  0  0  0  0
 14 16  1  0  0  0  0
 15 17  2  0  0  0  0
 15 57  1  0  0  0  0
 16 48  1  0  0  0  0
 16 49  1  0  0  0  0
 16 65  1  0  0  0  0
 17 19  1  0  0  0  0
 17 58  1  0  0  0  0
 18 50  1  0  0  0  0
 18 66  1  0  0  0  0
 18 67  1  0  0  0  0
 19 20  2  0  0  0  0
 19 60  1  0  0  0  0
 20 61  1  0  0  0  0
 21 22  1  0  0  0  0
 21 62  1  0  0  0  0
 21 64  1  0  0  0  0
 23 30  1  0  0  0  0
 23 31  1  0  0  0  0
 23 63  1  6  0  0  0
 24 25  2  0  0  0  0
 24 29  1  0  0  0  0
 24 68  1  0  0  0  0
 25 26  1  0  0  0  0
 25 69  1  0  0  0  0
 26 27  2  0  0  0  0
 26 70  1  0  0  0  0
 27 28  1  0  0  0  0
 27 71  1  0  0  0  0
 28 29  2  0  0  0  0
 28 30  1  0  0  0  0
 29 72  1  0  0  0  0
 30 73  1  0  0  0  0
 30 74  1  0  0  0  0
 31 32  1  0  0  0  0
 31 75  1  0  0  0  0
 31 76  1  0  0  0  0
 32 33  1  0  0  0  0
 32 77  1  1  0  0  0
 33 37  1  0  0  0  0
 33 78  1  6  0  0  0
 34 35  1  0  0  0  0
 35 36  1  0  0  0  0
 35 41  1  0  0  0  0
 35 79  1  1  0  0  0
 36 38  1  0  0  0  0
 37 80  1  0  0  0  0
 37 81  1  0  0  0  0
 38 39  2  0  0  0  0
 38 40  1  0  0  0  0
 40 41  1  0  0  0  0
 40 42  1  0  0  0  0
 41 82  1  0  0  0  0
 41 83  1  0  0  0  0
 42 43  2  0  0  0  0
 42 47  1  0  0  0  0
 43 44  1  0  0  0  0
 43 84  1  0  0  0  0
 44 45  2  0  0  0  0
 44 85  1  0  0  0  0
 45 46  1  0  0  0  0
 45 86  1  0  0  0  0
 46 47  2  0  0  0  0
 46 87  1  0  0  0  0
 47 88  1  0  0  0  0
M  END
>  <charge>
0

>  <KI_NM>
8.05

>  <number_of_rotatable_bonds>
16

>  <lm5_entropy_jk>
39.45594585765423

>  <ligand_crystal_conformation>
A

$$$$
