model16a
 OpenBabel11252210453D

 88 92  0  0  1  0  0  0  0  0999 V2000
    8.1310   -6.3580   17.6140 C   0  0  0  0  0  0  0  0  0  0  0  0
    8.0020   -5.4740   16.5490 O   0  0  0  0  0  0  0  0  0  0  0  0
    7.0270   -6.7240   18.4120 C   0  0  0  0  0  0  0  0  0  0  0  0
    6.8820   -3.1900   14.6250 O   0  0  0  0  0  0  0  0  0  0  0  0
    7.0950   -7.8420   19.2500 C   0  0  0  0  0  0  0  0  0  0  0  0
    5.6210   -3.3070   16.5100 N   0  0  0  0  0  0  0  0  0  0  0  0
    8.2580   -8.6150   19.3090 C   0  0  0  0  0  0  0  0  0  0  0  0
    7.0670    0.9910   12.4740 C   0  0  0  0  0  0  0  0  0  0  0  0
    4.3910    0.3300   13.5780 N   0  0  0  0  0  0  0  0  0  0  0  0
    5.0340    0.9360   16.3090 O   0  0  0  0  0  0  0  0  0  0  0  0
    9.3770   -8.2180   18.5690 C   0  0  0  0  0  0  0  0  0  0  0  0
    6.7610    2.2370   11.9060 C   0  0  0  0  0  0  0  0  0  0  0  0
    3.4310   -1.6890   13.1600 O   0  0  0  0  0  0  0  0  0  0  0  0
    9.3260   -7.0810   17.7530 C   0  0  0  0  0  0  0  0  0  0  0  0
    7.0650    2.4970   10.5590 C   0  0  0  0  0  0  0  0  0  0  0  0
   10.5530   -6.6530   17.0050 C   0  0  0  0  0  0  0  0  0  0  0  0
    7.6730    1.5010    9.7770 C   0  0  0  0  0  0  0  0  0  0  0  0
    5.7420   -5.9690   18.3690 C   0  0  0  0  0  0  0  0  0  0  0  0
    7.9840    0.2550   10.3440 C   0  0  0  0  0  0  0  0  0  0  0  0
    7.6740    0.0010   11.6910 C   0  0  0  0  0  0  0  0  0  0  0  0
    7.9270   -4.0310   16.6390 C   0  0  0  0  0  0  0  0  0  0  0  0
    6.7770   -3.4900   15.8050 C   0  0  0  0  0  0  0  0  0  0  0  0
    4.4050   -2.7760   15.9550 C   0  0  1  0  0  0  0  0  0  0  0  0
    2.7100   -6.6750   14.7140 C   0  0  0  0  0  0  0  0  0  0  0  0
    2.6950   -7.6200   15.7530 C   0  0  0  0  0  0  0  0  0  0  0  0
    2.7620   -7.1940   17.0850 C   0  0  0  0  0  0  0  0  0  0  0  0
    2.8910   -5.8240   17.3650 C   0  0  0  0  0  0  0  0  0  0  0  0
    2.9970   -4.8890   16.3290 C   0  0  0  0  0  0  0  0  0  0  0  0
    2.8670   -5.3110   15.0010 C   0  0  0  0  0  0  0  0  0  0  0  0
    3.2050   -3.4310   16.6570 C   0  0  0  0  0  0  0  0  0  0  0  0
    4.2980   -1.2820   16.2440 C   0  0  0  0  0  0  0  0  0  0  0  0
    5.4170   -0.3290   15.7970 C   0  0  1  0  0  0  0  0  0  0  0  0
    5.6050   -0.1840   14.2520 C   0  0  2  0  0  0  0  0  0  0  0  0
    3.3830   -0.4750   13.0960 C   0  0  0  0  0  0  0  0  0  0  0  0
    2.2220    0.2230   12.3830 C   0  0  1  0  0  0  0  0  0  0  0  0
    1.6880    1.3870   13.0720 O   0  0  0  0  0  0  0  0  0  0  0  0
    6.8140    0.7450   13.9450 C   0  0  0  0  0  0  0  0  0  0  0  0
    1.4690    2.4330   12.2210 C   0  0  0  0  0  0  0  0  0  0  0  0
    1.0010    3.5060   12.5190 O   0  0  0  0  0  0  0  0  0  0  0  0
    2.0840    2.1440   11.0390 N   0  0  0  0  0  0  0  0  0  0  0  0
    2.6390    0.8010   11.0300 C   0  0  0  0  0  0  0  0  0  0  0  0
    2.2410    3.0380    9.9590 C   0  0  0  0  0  0  0  0  0  0  0  0
    3.5220    3.4420    9.5620 C   0  0  0  0  0  0  0  0  0  0  0  0
    3.6930    4.3150    8.4740 C   0  0  0  0  0  0  0  0  0  0  0  0
    2.5650    4.7860    7.7830 C   0  0  0  0  0  0  0  0  0  0  0  0
    1.2770    4.3890    8.1790 C   0  0  0  0  0  0  0  0  0  0  0  0
    1.1220    3.5150    9.2690 C   0  0  0  0  0  0  0  0  0  0  0  0
   10.8160   -5.6150   17.2380 H   0  0  0  0  0  0  0  0  0  0  0  0
   10.3500   -6.7080   15.9300 H   0  0  0  0  0  0  0  0  0  0  0  0
    5.4470   -5.8150   17.3260 H   0  0  0  0  0  0  0  0  0  0  0  0
    5.6190   -3.5690   17.4870 H   0  0  0  0  0  0  0  0  0  0  0  0
    4.2420    1.3280   13.5140 H   0  0  0  0  0  0  0  0  0  0  0  0
    5.0150    1.5210   15.5260 H   0  0  0  0  0  0  0  0  0  0  0  0
    6.2280   -8.1350   19.8400 H   0  0  0  0  0  0  0  0  0  0  0  0
    6.3050    3.0140   12.5170 H   0  0  0  0  0  0  0  0  0  0  0  0
    8.2980   -9.5030   19.9420 H   0  0  0  0  0  0  0  0  0  0  0  0
    6.8420    3.4720   10.1240 H   0  0  0  0  0  0  0  0  0  0  0  0
    7.9070    1.7030    8.7320 H   0  0  0  0  0  0  0  0  0  0  0  0
   10.2800   -8.8180   18.6130 H   0  0  0  0  0  0  0  0  0  0  0  0
    8.4700   -0.5090    9.7440 H   0  0  0  0  0  0  0  0  0  0  0  0
    7.9230   -0.9560   12.1390 H   0  0  0  0  0  0  0  0  0  0  0  0
    8.8440   -3.5530   16.2780 H   0  0  0  0  0  0  0  0  0  0  0  0
    4.3780   -2.9740   14.8700 H   0  0  0  0  0  0  0  0  0  0  0  0
    7.7360   -3.7070   17.6580 H   0  0  0  0  0  0  0  0  0  0  0  0
   11.4070   -7.2890   17.2600 H   0  0  0  0  0  0  0  0  0  0  0  0
    5.8430   -5.0040   18.8550 H   0  0  0  0  0  0  0  0  0  0  0  0
    4.9410   -6.5150   18.8720 H   0  0  0  0  0  0  0  0  0  0  0  0
    2.6040   -6.9980   13.6850 H   0  0  0  0  0  0  0  0  0  0  0  0
    2.6130   -8.6830   15.5320 H   0  0  0  0  0  0  0  0  0  0  0  0
    2.7130   -7.9200   17.8970 H   0  0  0  0  0  0  0  0  0  0  0  0
    2.9260   -5.4890   18.3990 H   0  0  0  0  0  0  0  0  0  0  0  0
    2.8800   -4.5820   14.1970 H   0  0  0  0  0  0  0  0  0  0  0  0
    2.2960   -2.8910   16.3850 H   0  0  0  0  0  0  0  0  0  0  0  0
    3.3050   -3.3020   17.7410 H   0  0  0  0  0  0  0  0  0  0  0  0
    4.2170   -1.1630   17.3270 H   0  0  0  0  0  0  0  0  0  0  0  0
    3.3600   -0.9160   15.8160 H   0  0  0  0  0  0  0  0  0  0  0  0
    6.3720   -0.6480   16.2480 H   0  0  0  0  0  0  0  0  0  0  0  0
    5.8300   -1.1860   13.8590 H   0  0  0  0  0  0  0  0  0  0  0  0
    1.4410   -0.5420   12.2640 H   0  0  0  0  0  0  0  0  0  0  0  0
    6.7100    1.7060   14.4580 H   0  0  0  0  0  0  0  0  0  0  0  0
    7.7170    0.3140   14.3950 H   0  0  0  0  0  0  0  0  0  0  0  0
    2.2240    0.2160   10.1960 H   0  0  0  0  0  0  0  0  0  0  0  0
    3.7360    0.8400   10.9220 H   0  0  0  0  0  0  0  0  0  0  0  0
    4.3870    3.0540   10.0900 H   0  0  0  0  0  0  0  0  0  0  0  0
    4.6940    4.6200    8.1640 H   0  0  0  0  0  0  0  0  0  0  0  0
    2.6890    5.4650    6.9370 H   0  0  0  0  0  0  0  0  0  0  0  0
    0.4000    4.7610    7.6470 H   0  0  0  0  0  0  0  0  0  0  0  0
    0.1280    3.2090    9.5810 H   0  0  0  0  0  0  0  0  0  0  0  0
  1  2  1  0  0  0  0
  1  3  2  0  0  0  0
  1 14  1  0  0  0  0
  2 21  1  0  0  0  0
  3  5  1  0  0  0  0
  3 18  1  0  0  0  0
  4 22  2  0  0  0  0
  5  7  2  0  0  0  0
  5 54  1  0  0  0  0
  6 22  1  0  0  0  0
  6 23  1  0  0  0  0
  6 51  1  0  0  0  0
  7 11  1  0  0  0  0
  7 56  1  0  0  0  0
  8 12  2  0  0  0  0
  8 20  1  0  0  0  0
  8 37  1  0  0  0  0
  9 33  1  0  0  0  0
  9 34  1  0  0  0  0
  9 52  1  0  0  0  0
 10 32  1  0  0  0  0
 10 53  1  0  0  0  0
 11 14  2  0  0  0  0
 11 59  1  0  0  0  0
 12 15  1  0  0  0  0
 12 55  1  0  0  0  0
 13 34  2  0  0  0  0
 14 16  1  0  0  0  0
 15 17  2  0  0  0  0
 15 57  1  0  0  0  0
 16 48  1  0  0  0  0
 16 49  1  0  0  0  0
 16 65  1  0  0  0  0
 17 19  1  0  0  0  0
 17 58  1  0  0  0  0
 18 50  1  0  0  0  0
 18 66  1  0  0  0  0
 18 67  1  0  0  0  0
 19 20  2  0  0  0  0
 19 60  1  0  0  0  0
 20 61  1  0  0  0  0
 21 22  1  0  0  0  0
 21 62  1  0  0  0  0
 21 64  1  0  0  0  0
 23 30  1  0  0  0  0
 23 31  1  0  0  0  0
 23 63  1  6  0  0  0
 24 25  2  0  0  0  0
 24 29  1  0  0  0  0
 24 68  1  0  0  0  0
 25 26  1  0  0  0  0
 25 69  1  0  0  0  0
 26 27  2  0  0  0  0
 26 70  1  0  0  0  0
 27 28  1  0  0  0  0
 27 71  1  0  0  0  0
 28 29  2  0  0  0  0
 28 30  1  0  0  0  0
 29 72  1  0  0  0  0
 30 73  1  0  0  0  0
 30 74  1  0  0  0  0
 31 32  1  0  0  0  0
 31 75  1  0  0  0  0
 31 76  1  0  0  0  0
 32 33  1  0  0  0  0
 32 77  1  1  0  0  0
 33 37  1  0  0  0  0
 33 78  1  6  0  0  0
 34 35  1  0  0  0  0
 35 36  1  0  0  0  0
 35 41  1  0  0  0  0
 35 79  1  1  0  0  0
 36 38  1  0  0  0  0
 37 80  1  0  0  0  0
 37 81  1  0  0  0  0
 38 39  2  0  0  0  0
 38 40  1  0  0  0  0
 40 41  1  0  0  0  0
 40 42  1  0  0  0  0
 41 82  1  0  0  0  0
 41 83  1  0  0  0  0
 42 43  2  0  0  0  0
 42 47  1  0  0  0  0
 43 44  1  0  0  0  0
 43 84  1  0  0  0  0
 44 45  2  0  0  0  0
 44 85  1  0  0  0  0
 45 46  1  0  0  0  0
 45 86  1  0  0  0  0
 46 47  2  0  0  0  0
 46 87  1  0  0  0  0
 47 88  1  0  0  0  0
M  END
>  <charge>
0

>  <KI_NM>
8.05

>  <number_of_rotatable_bonds>
16

>  <lm5_entropy_jk>
39.45594585765423

>  <ligand_crystal_conformation>
A

$$$$
