3EKX
 OpenBabel11252210453D

 86 89  0  0  1  0  0  0  0  0999 V2000
    2.8170   -4.3570   17.0240 C   0  0  2  0  0  0  0  0  0  0  0  0
    3.6970   -5.3080   17.8510 C   0  0  1  0  0  0  0  0  0  0  0  0
    3.0180   -6.6840   17.9550 C   0  0  0  0  0  0  0  0  0  0  0  0
    2.6630   -7.2990   16.5790 C   0  0  0  0  0  0  0  0  0  0  0  0
    1.8930   -6.3090   15.6610 C   0  0  0  0  0  0  0  0  0  0  0  0
    2.5810   -4.9200   15.5990 C   0  0  0  0  0  0  0  0  0  0  0  0
    4.8570   -3.0160   16.2800 N   0  3  1  0  0  0  0  0  0  0  0  0
    5.7710   -4.0520   16.9490 C   0  0  1  0  0  0  0  0  0  0  0  0
    5.1130   -5.4440   17.2420 C   0  0  0  0  0  0  0  0  0  0  0  0
    3.5030   -2.9840   16.9790 C   0  0  0  0  0  0  0  0  0  0  0  0
    7.0490   -4.2050   16.1320 C   0  0  0  0  0  0  0  0  0  0  0  0
    8.0940   -4.7480   16.8290 N   0  0  0  0  0  0  0  0  0  0  0  0
    9.4220   -4.9120   16.3930 C   0  0  0  0  0  0  0  0  0  0  0  0
    9.9810   -3.6430   15.8780 C   0  0  0  0  0  0  0  0  0  0  0  0
    9.4920   -5.9650   15.3690 C   0  0  0  0  0  0  0  0  0  0  0  0
   10.2350   -5.3400   17.5510 C   0  0  0  0  0  0  0  0  0  0  0  0
    7.1090   -3.8160   14.9790 O   0  0  0  0  0  0  0  0  0  0  0  0
    5.5410   -1.6560   16.4580 C   0  0  0  0  0  0  0  0  0  0  0  0
    4.9250   -0.4700   15.7110 C   0  0  2  0  0  0  0  0  0  0  0  0
    5.6040   -0.1720   14.3460 C   0  0  1  0  0  0  0  0  0  0  0  0
    5.0670    0.6440   16.5670 O   0  0  0  0  0  0  0  0  0  0  0  0
    4.8170    0.8230   13.6100 N   0  0  0  0  0  0  0  0  0  0  0  0
    7.0650    0.3190   14.4670 C   0  0  0  0  0  0  0  0  0  0  0  0
    3.6670    0.5380   12.9160 C   0  0  0  0  0  0  0  0  0  0  0  0
    3.2700   -0.6140   12.8120 O   0  0  0  0  0  0  0  0  0  0  0  0
    3.0040    1.7430   12.2710 C   0  0  0  0  0  0  0  0  0  0  0  0
    3.8540    2.7200   11.6970 C   0  0  0  0  0  0  0  0  0  0  0  0
    3.3450    3.8530   11.0540 C   0  0  0  0  0  0  0  0  0  0  0  0
    1.9620    4.0290   10.9700 C   0  0  0  0  0  0  0  0  0  0  0  0
    1.0970    3.0980   11.5470 C   0  0  0  0  0  0  0  0  0  0  0  0
    1.5930    1.9410   12.2080 C   0  0  0  0  0  0  0  0  0  0  0  0
   -0.2350    3.3510   11.4420 O   0  0  0  0  0  0  0  0  0  0  0  0
    0.6140    0.9150   12.8030 C   0  0  0  0  0  0  0  0  0  0  0  0
    7.9550    0.1400   12.8550 S   0  0  0  0  0  0  0  0  0  0  0  0
    7.5960    1.6040   11.8970 C   0  0  0  0  0  0  0  0  0  0  0  0
    7.4780    1.4820   10.5040 C   0  0  0  0  0  0  0  0  0  0  0  0
    7.2430    2.6170    9.7080 C   0  0  0  0  0  0  0  0  0  0  0  0
    7.1350    3.8830   10.3090 C   0  0  0  0  0  0  0  0  0  0  0  0
    7.2610    4.0120   11.7020 C   0  0  0  0  0  0  0  0  0  0  0  0
    7.4940    2.8720   12.4930 C   0  0  0  0  0  0  0  0  0  0  0  0
    1.8460   -4.2720   17.5380 H   0  0  0  0  0  0  0  0  0  0  0  0
    3.7950   -4.8970   18.8690 H   0  0  0  0  0  0  0  0  0  0  0  0
    2.1050   -6.5900   18.5550 H   0  0  0  0  0  0  0  0  0  0  0  0
    3.6740   -7.3690   18.5080 H   0  0  0  0  0  0  0  0  0  0  0  0
    2.0800   -8.2160   16.7460 H   0  0  0  0  0  0  0  0  0  0  0  0
    3.5870   -7.6410   16.0970 H   0  0  0  0  0  0  0  0  0  0  0  0
    0.8630   -6.2020   16.0260 H   0  0  0  0  0  0  0  0  0  0  0  0
    1.8140   -6.7320   14.6510 H   0  0  0  0  0  0  0  0  0  0  0  0
    3.5410   -5.0230   15.0850 H   0  0  0  0  0  0  0  0  0  0  0  0
    1.9960   -4.2100   14.9970 H   0  0  0  0  0  0  0  0  0  0  0  0
    6.0780   -3.6190   17.8990 H   0  0  0  0  0  0  0  0  0  0  0  0
    5.0700   -6.0340   16.3200 H   0  0  0  0  0  0  0  0  0  0  0  0
    5.7280   -6.0490   17.9240 H   0  0  0  0  0  0  0  0  0  0  0  0
    3.6600   -2.6410   18.0050 H   0  0  0  0  0  0  0  0  0  0  0  0
    2.8540   -2.2590   16.4790 H   0  0  0  0  0  0  0  0  0  0  0  0
    7.8710   -5.1760   17.7090 H   0  0  0  0  0  0  0  0  0  0  0  0
   11.0540   -3.7080   15.7040 H   0  0  0  0  0  0  0  0  0  0  0  0
    9.5070   -3.3760   14.9280 H   0  0  0  0  0  0  0  0  0  0  0  0
    9.7910   -2.8350   16.5870 H   0  0  0  0  0  0  0  0  0  0  0  0
    8.8080   -5.7120   14.5570 H   0  0  0  0  0  0  0  0  0  0  0  0
   10.5010   -6.0620   14.9610 H   0  0  0  0  0  0  0  0  0  0  0  0
    9.1690   -6.9270   15.7800 H   0  0  0  0  0  0  0  0  0  0  0  0
   11.2660   -5.5410   17.2430 H   0  0  0  0  0  0  0  0  0  0  0  0
   10.2730   -4.5590   18.3150 H   0  0  0  0  0  0  0  0  0  0  0  0
    9.8430   -6.2660   17.9900 H   0  0  0  0  0  0  0  0  0  0  0  0
    6.5860   -1.7590   16.1480 H   0  0  0  0  0  0  0  0  0  0  0  0
    5.5510   -1.4130   17.5240 H   0  0  0  0  0  0  0  0  0  0  0  0
    3.8540   -0.6580   15.5260 H   0  0  0  0  0  0  0  0  0  0  0  0
    5.6220   -1.1110   13.7740 H   0  0  0  0  0  0  0  0  0  0  0  0
    6.0220    0.6740   16.8610 H   0  0  0  0  0  0  0  0  0  0  0  0
    5.0450    1.8080   13.7200 H   0  0  0  0  0  0  0  0  0  0  0  0
    7.6120   -0.2830   15.2040 H   0  0  0  0  0  0  0  0  0  0  0  0
    7.0950    1.3450   14.8480 H   0  0  0  0  0  0  0  0  0  0  0  0
    4.9340    2.5780   11.7100 H   0  0  0  0  0  0  0  0  0  0  0  0
    4.0250    4.5720   10.5920 H   0  0  0  0  0  0  0  0  0  0  0  0
    1.5520    4.8740   10.4230 H   0  0  0  0  0  0  0  0  0  0  0  0
   -0.7110    2.8870   12.1600 H   0  0  0  0  0  0  0  0  0  0  0  0
    0.3320    0.1800   12.0370 H   0  0  0  0  0  0  0  0  0  0  0  0
    1.0610    0.3480   13.6270 H   0  0  0  0  0  0  0  0  0  0  0  0
   -0.3080    1.3610   13.1920 H   0  0  0  0  0  0  0  0  0  0  0  0
    7.5740    0.5010   10.0410 H   0  0  0  0  0  0  0  0  0  0  0  0
    7.1490    2.5170    8.6260 H   0  0  0  0  0  0  0  0  0  0  0  0
    6.9580    4.7660    9.6940 H   0  0  0  0  0  0  0  0  0  0  0  0
    7.1830    4.9930   12.1700 H   0  0  0  0  0  0  0  0  0  0  0  0
    7.6090    2.9840   13.5660 H   0  0  0  0  0  0  0  0  0  0  0  0
    4.7460   -3.2780   15.2720 H   0  0  0  0  0  0  0  0  0  0  0  0
  1  2  1  0  0  0  0
  1  6  1  0  0  0  0
  1 10  1  0  0  0  0
  1 41  1  1  0  0  0
  2  3  1  0  0  0  0
  2  9  1  0  0  0  0
  2 42  1  1  0  0  0
  3  4  1  0  0  0  0
  3 43  1  0  0  0  0
  3 44  1  0  0  0  0
  4  5  1  0  0  0  0
  4 45  1  0  0  0  0
  4 46  1  0  0  0  0
  5  6  1  0  0  0  0
  5 47  1  0  0  0  0
  5 48  1  0  0  0  0
  6 49  1  0  0  0  0
  6 50  1  0  0  0  0
  7  8  1  0  0  0  0
  7 10  1  0  0  0  0
  7 18  1  0  0  0  0
  7 86  1  6  0  0  0
  8  9  1  0  0  0  0
  8 11  1  0  0  0  0
  8 51  1  1  0  0  0
  9 52  1  0  0  0  0
  9 53  1  0  0  0  0
 10 54  1  0  0  0  0
 10 55  1  0  0  0  0
 11 12  1  0  0  0  0
 11 17  2  0  0  0  0
 12 13  1  0  0  0  0
 12 56  1  0  0  0  0
 13 14  1  0  0  0  0
 13 15  1  0  0  0  0
 13 16  1  0  0  0  0
 14 57  1  0  0  0  0
 14 58  1  0  0  0  0
 14 59  1  0  0  0  0
 15 60  1  0  0  0  0
 15 61  1  0  0  0  0
 15 62  1  0  0  0  0
 16 63  1  0  0  0  0
 16 64  1  0  0  0  0
 16 65  1  0  0  0  0
 18 19  1  0  0  0  0
 18 66  1  0  0  0  0
 18 67  1  0  0  0  0
 19 20  1  0  0  0  0
 19 21  1  0  0  0  0
 19 68  1  6  0  0  0
 20 22  1  0  0  0  0
 20 23  1  0  0  0  0
 20 69  1  6  0  0  0
 21 70  1  0  0  0  0
 22 24  1  0  0  0  0
 22 71  1  0  0  0  0
 23 34  1  0  0  0  0
 23 72  1  0  0  0  0
 23 73  1  0  0  0  0
 24 25  2  0  0  0  0
 24 26  1  0  0  0  0
 26 27  2  0  0  0  0
 26 31  1  0  0  0  0
 27 28  1  0  0  0  0
 27 74  1  0  0  0  0
 28 29  2  0  0  0  0
 28 75  1  0  0  0  0
 29 30  1  0  0  0  0
 29 76  1  0  0  0  0
 30 31  2  0  0  0  0
 30 32  1  0  0  0  0
 31 33  1  0  0  0  0
 32 77  1  0  0  0  0
 33 78  1  0  0  0  0
 33 79  1  0  0  0  0
 33 80  1  0  0  0  0
 34 35  1  0  0  0  0
 35 36  2  0  0  0  0
 35 40  1  0  0  0  0
 36 37  1  0  0  0  0
 36 81  1  0  0  0  0
 37 38  2  0  0  0  0
 37 82  1  0  0  0  0
 38 39  1  0  0  0  0
 38 83  1  0  0  0  0
 39 40  2  0  0  0  0
 39 84  1  0  0  0  0
 40 85  1  0  0  0  0
M  CHG  1   7   1
M  END
>  <charge>
1

>  <KI_NM>
0.07

>  <number_of_rotatable_bonds>
12

>  <lm5_entropy_jk>
45.93606948979449

>  <ligand_crystal_conformation>
B

$$$$
