3R8Z
 OpenBabel11252210453D

 30 31  0  0  1  0  0  0  0  0999 V2000
   65.8530  154.5300  -50.5380 N   0  0  0  0  0  0  0  0  0  0  0  0
   67.4120  153.4910  -52.0390 N   0  0  0  0  0  0  0  0  0  0  0  0
   68.8580  149.1100  -46.4100 N   0  0  0  0  0  0  0  0  0  0  0  0
   64.5710  155.2940  -48.6740 N   0  0  0  0  0  0  0  0  0  0  0  0
   66.9080  153.6080  -50.7850 C   0  0  0  0  0  0  0  0  0  0  0  0
   67.3470  152.8240  -49.6890 C   0  0  0  0  0  0  0  0  0  0  0  0
   68.3200  151.7840  -49.7500 C   0  0  0  0  0  0  0  0  0  0  0  0
   68.4880  150.8850  -48.5510 C   0  0  0  0  0  0  0  0  0  0  0  0
   67.4090  150.1560  -48.0430 C   0  0  0  0  0  0  0  0  0  0  0  0
   67.6290  149.2900  -46.9580 C   0  0  0  0  0  0  0  0  0  0  0  0
   69.9030  149.8020  -46.9320 C   0  0  0  0  0  0  0  0  0  0  0  0
   69.7580  150.7170  -47.9880 C   0  0  0  0  0  0  0  0  0  0  0  0
   65.4830  154.4380  -49.2400 C   0  0  0  0  0  0  0  0  0  0  0  0
   64.0770  155.0990  -47.2900 C   0  0  0  0  0  0  0  0  0  0  0  0
   63.0100  154.0430  -47.1580 C   0  0  0  0  0  0  0  0  0  0  0  0
   62.7410  153.4730  -45.9860 C   0  0  0  0  0  0  0  0  0  0  0  0
   69.0040  151.5660  -50.7470 O   0  0  0  0  0  0  0  0  0  0  0  0
   66.4070  153.1690  -48.2780 S   0  0  0  0  0  0  0  0  0  0  0  0
   67.0870  154.1130  -52.8040 H   0  0  0  0  0  0  0  0  0  0  0  0
   68.1990  152.8560  -52.2200 H   0  0  0  0  0  0  0  0  0  0  0  0
   66.4070  150.2340  -48.4620 H   0  0  0  0  0  0  0  0  0  0  0  0
   66.8000  148.7230  -46.5100 H   0  0  0  0  0  0  0  0  0  0  0  0
   70.8820  149.6040  -46.4760 H   0  0  0  0  0  0  0  0  0  0  0  0
   70.6180  151.2780  -48.3600 H   0  0  0  0  0  0  0  0  0  0  0  0
   63.8380  155.6970  -49.3030 H   0  0  0  0  0  0  0  0  0  0  0  0
   63.6270  156.0870  -46.9770 H   0  0  0  0  0  0  0  0  0  0  0  0
   64.9400  154.8700  -46.6150 H   0  0  0  0  0  0  0  0  0  0  0  0
   62.4640  153.8090  -48.0720 H   0  0  0  0  0  0  0  0  0  0  0  0
   63.2860  153.7120  -45.0720 H   0  0  0  0  0  0  0  0  0  0  0  0
   61.9590  152.7330  -45.8600 H   0  0  0  0  0  0  0  0  0  0  0  0
  1  5  1  0  0  0  0
  1 13  2  0  0  0  0
  2  5  1  0  0  0  0
  2 19  1  0  0  0  0
  2 20  1  0  0  0  0
  3 10  2  0  0  0  0
  3 11  1  0  0  0  0
  4 13  1  0  0  0  0
  4 14  1  0  0  0  0
  4 25  1  0  0  0  0
  5  6  2  0  0  0  0
  6 18  1  0  0  0  0
  7  6  1  0  0  0  0
  7  8  1  0  0  0  0
  7 17  2  0  0  0  0
  8  9  2  0  0  0  0
  8 12  1  0  0  0  0
  9 10  1  0  0  0  0
  9 21  1  0  0  0  0
 10 22  1  0  0  0  0
 11 12  2  0  0  0  0
 11 23  1  0  0  0  0
 12 24  1  0  0  0  0
 13 18  1  0  0  0  0
 14 15  1  0  0  0  0
 14 26  1  0  0  0  0
 14 27  1  0  0  0  0
 15 16  2  0  0  0  0
 15 28  1  0  0  0  0
 16 29  1  0  0  0  0
 16 30  1  0  0  0  0
M  END
>  <lm5_entropy_jk>
22.952794734129974

>  <number_of_rotatable_bonds>
5

>  <IC50_NM>
49000

>  <charge>
0

$$$$
