6QBG
 OpenBabel11252210453D

 86 88  0  0  1  0  0  0  0  0999 V2000
    8.3820   18.4990    8.7350 N   0  0  0  0  0  0  0  0  0  0  0  0
    7.2700   18.0070    9.5470 C   0  0  2  0  0  0  0  0  0  0  0  0
   13.0190   16.1400    7.8590 C   0  0  0  0  0  0  0  0  0  0  0  0
   11.6860   16.4540    7.1190 C   0  0  1  0  0  0  0  0  0  0  0  0
   11.2680   17.9480    7.3240 C   0  0  2  0  0  0  0  0  0  0  0  0
    9.8560   18.2800    6.8130 C   0  0  0  0  0  0  0  0  0  0  0  0
    8.8630   17.7560    7.6560 C   0  0  0  0  0  0  0  0  0  0  0  0
   11.1040   15.0500    5.0820 C   0  0  0  0  0  0  0  0  0  0  0  0
   13.2190   14.7350    7.8420 C   0  0  0  0  0  0  0  0  0  0  0  0
   14.0270   14.0920    6.9110 C   0  0  0  0  0  0  0  0  0  0  0  0
   14.1840   12.6840    6.9630 C   0  0  0  0  0  0  0  0  0  0  0  0
   13.5600   11.9330    7.9520 C   0  0  0  0  0  0  0  0  0  0  0  0
   12.7940   12.5900    8.8820 C   0  0  0  0  0  0  0  0  0  0  0  0
   12.6540   13.9670    8.8280 C   0  0  0  0  0  0  0  0  0  0  0  0
   11.2300   14.8800    3.6690 C   0  0  0  0  0  0  0  0  0  0  0  0
    3.6460   17.3830    8.4510 C   0  0  0  0  0  0  0  0  0  0  0  0
    9.8980   15.3240    2.8970 C   0  0  0  0  0  0  0  0  0  0  0  0
    9.1710   16.4520    3.6160 C   0  0  0  0  0  0  0  0  0  0  0  0
    7.9550   16.9190    2.8450 C   0  0  0  0  0  0  0  0  0  0  0  0
    6.9430   17.7040    3.7540 C   0  0  0  0  0  0  0  0  0  0  0  0
    5.5560   17.0680    3.6150 C   0  0  0  0  0  0  0  0  0  0  0  0
    3.4370   16.0100    7.8250 C   0  0  0  0  0  0  0  0  0  0  0  0
    6.0590   18.2460    8.8160 C   0  0  0  0  0  0  0  0  0  0  0  0
    5.9350   19.2090    8.0530 O   0  0  0  0  0  0  0  0  0  0  0  0
   11.7440   16.1470    5.6680 N   0  0  0  0  0  0  0  0  0  0  0  0
    5.0080   17.3540    9.0430 N   0  0  0  0  0  0  0  0  0  0  0  0
    7.2440   18.6490   10.9400 C   0  0  0  0  0  0  0  0  0  0  0  0
    3.6420   16.0160    6.3800 C   0  0  0  0  0  0  0  0  0  0  0  0
    4.9030   16.6890    5.9840 C   0  0  0  0  0  0  0  0  0  0  0  0
    4.6080   17.4500    4.7170 C   0  0  0  0  0  0  0  0  0  0  0  0
   14.9520   12.0210    6.0380 C   0  0  0  0  0  0  0  0  0  0  0  0
   15.0960   10.6360    6.1230 C   0  0  0  0  0  0  0  0  0  0  0  0
   14.4680    9.9040    7.1350 C   0  0  0  0  0  0  0  0  0  0  0  0
   13.6910   10.5490    8.0610 C   0  0  0  0  0  0  0  0  0  0  0  0
    8.3260   16.6670    7.4710 O   0  0  0  0  0  0  0  0  0  0  0  0
   10.3840   14.3160    5.7890 O   0  0  0  0  0  0  0  0  0  0  0  0
   12.2420   18.7860    6.6580 O   0  0  0  0  0  0  0  0  0  0  0  0
    6.2340   17.9440   11.8980 C   0  0  0  0  0  0  0  0  0  0  0  0
    6.9090   20.1350   10.8590 C   0  0  0  0  0  0  0  0  0  0  0  0
    7.5530   20.6510   10.1510 H   0  0  0  0  0  0  0  0  0  0  0  0
    8.7050   19.4560    8.8530 H   0  0  0  0  0  0  0  0  0  0  0  0
    7.3660   16.9310    9.6840 H   0  0  0  0  0  0  0  0  0  0  0  0
   12.9680   16.4920    8.8930 H   0  0  0  0  0  0  0  0  0  0  0  0
   10.9110   15.8340    7.5790 H   0  0  0  0  0  0  0  0  0  0  0  0
   11.2960   18.1790    8.3930 H   0  0  0  0  0  0  0  0  0  0  0  0
    9.7080   17.9150    5.8050 H   0  0  0  0  0  0  0  0  0  0  0  0
   14.5350   14.6500    6.1380 H   0  0  0  0  0  0  0  0  0  0  0  0
   12.3110   12.0340    9.6830 H   0  0  0  0  0  0  0  0  0  0  0  0
   12.0700   14.4540    9.6020 H   0  0  0  0  0  0  0  0  0  0  0  0
   11.5340   13.8860    3.3770 H   0  0  0  0  0  0  0  0  0  0  0  0
    3.5250   18.2020    7.7340 H   0  0  0  0  0  0  0  0  0  0  0  0
    9.2320   14.4610    2.8230 H   0  0  0  0  0  0  0  0  0  0  0  0
    9.8490   17.2980    3.7430 H   0  0  0  0  0  0  0  0  0  0  0  0
    7.4780   16.0220    2.4520 H   0  0  0  0  0  0  0  0  0  0  0  0
    6.9100   18.7570    3.4640 H   0  0  0  0  0  0  0  0  0  0  0  0
    5.6070   15.9770    3.5510 H   0  0  0  0  0  0  0  0  0  0  0  0
    2.4100   15.6910    8.0220 H   0  0  0  0  0  0  0  0  0  0  0  0
   12.3450   16.7260    5.1020 H   0  0  0  0  0  0  0  0  0  0  0  0
    5.1700   16.5990    9.7000 H   0  0  0  0  0  0  0  0  0  0  0  0
    8.2400   18.5420   11.3760 H   0  0  0  0  0  0  0  0  0  0  0  0
    2.7530   16.5200    5.9900 H   0  0  0  0  0  0  0  0  0  0  0  0
    5.6700   15.9300    5.8350 H   0  0  0  0  0  0  0  0  0  0  0  0
    3.6090   17.2680    4.3120 H   0  0  0  0  0  0  0  0  0  0  0  0
   15.4550   12.5740    5.2470 H   0  0  0  0  0  0  0  0  0  0  0  0
   15.7150   10.1150    5.3920 H   0  0  0  0  0  0  0  0  0  0  0  0
   14.6080    8.8260    7.1940 H   0  0  0  0  0  0  0  0  0  0  0  0
   13.2010    9.9950    8.8600 H   0  0  0  0  0  0  0  0  0  0  0  0
   12.9480   19.1060    7.3460 H   0  0  0  0  0  0  0  0  0  0  0  0
    6.4430   16.8750   11.9560 H   0  0  0  0  0  0  0  0  0  0  0  0
    7.0430   20.6050   11.8350 H   0  0  0  0  0  0  0  0  0  0  0  0
   13.8570   16.6590    7.3900 H   0  0  0  0  0  0  0  0  0  0  0  0
    9.7360   19.3640    6.7660 H   0  0  0  0  0  0  0  0  0  0  0  0
   12.0360   15.5310    3.3190 H   0  0  0  0  0  0  0  0  0  0  0  0
    2.9240   17.5260    9.2610 H   0  0  0  0  0  0  0  0  0  0  0  0
   10.1540   15.6270    1.8780 H   0  0  0  0  0  0  0  0  0  0  0  0
    8.8430   16.1050    4.5980 H   0  0  0  0  0  0  0  0  0  0  0  0
    8.2570   17.5210    1.9890 H   0  0  0  0  0  0  0  0  0  0  0  0
    7.2630   17.6700    4.7980 H   0  0  0  0  0  0  0  0  0  0  0  0
    5.1310   17.4400    2.6850 H   0  0  0  0  0  0  0  0  0  0  0  0
    4.0800   15.2540    8.2810 H   0  0  0  0  0  0  0  0  0  0  0  0
    3.6170   14.9950    5.9890 H   0  0  0  0  0  0  0  0  0  0  0  0
    5.3360   17.4080    6.6410 H   0  0  0  0  0  0  0  0  0  0  0  0
    4.6630   18.5270    4.9030 H   0  0  0  0  0  0  0  0  0  0  0  0
    5.1990   18.0900   11.5820 H   0  0  0  0  0  0  0  0  0  0  0  0
    5.8720   20.2990   10.5550 H   0  0  0  0  0  0  0  0  0  0  0  0
    6.3310   18.3540   12.9060 H   0  0  0  0  0  0  0  0  0  0  0  0
  1 41  1  0  0  0  0
  1  2  1  0  0  0  0
  2 42  1  1  0  0  0
  2 27  1  0  0  0  0
  3 43  1  0  0  0  0
  4  5  1  0  0  0  0
  4 44  1  1  0  0  0
  4  3  1  0  0  0  0
  5 45  1  1  0  0  0
  6  5  1  0  0  0  0
  6  7  1  0  0  0  0
  7  1  1  0  0  0  0
  8 25  1  0  0  0  0
  8 36  2  0  0  0  0
  9  3  1  0  0  0  0
  9 14  2  0  0  0  0
 10 11  2  0  0  0  0
 10  9  1  0  0  0  0
 11 12  1  0  0  0  0
 12 34  1  0  0  0  0
 12 13  2  0  0  0  0
 13 48  1  0  0  0  0
 14 13  1  0  0  0  0
 14 49  1  0  0  0  0
 15  8  1  0  0  0  0
 16 26  1  0  0  0  0
 16 74  1  0  0  0  0
 17 18  1  0  0  0  0
 17 15  1  0  0  0  0
 18 53  1  0  0  0  0
 18 76  1  0  0  0  0
 19 18  1  0  0  0  0
 19 20  1  0  0  0  0
 20 78  1  0  0  0  0
 21 20  1  0  0  0  0
 21 30  1  0  0  0  0
 22 57  1  0  0  0  0
 22 80  1  0  0  0  0
 22 16  1  0  0  0  0
 23 26  1  0  0  0  0
 23  2  1  0  0  0  0
 24 23  2  0  0  0  0
 25  4  1  0  0  0  0
 26 59  1  0  0  0  0
 27 60  1  0  0  0  0
 27 38  1  0  0  0  0
 28 22  1  0  0  0  0
 29 28  1  0  0  0  0
 29 82  1  0  0  0  0
 30 83  1  0  0  0  0
 30 29  1  0  0  0  0
 31 32  2  0  0  0  0
 31 11  1  0  0  0  0
 32 33  1  0  0  0  0
 33 66  1  0  0  0  0
 33 34  2  0  0  0  0
 34 67  1  0  0  0  0
 35  7  2  0  0  0  0
 37  5  1  0  0  0  0
 37 68  1  0  0  0  0
 38 69  1  0  0  0  0
 38 86  1  0  0  0  0
 39 27  1  0  0  0  0
 39 70  1  0  0  0  0
 40 39  1  0  0  0  0
 46  6  1  0  0  0  0
 47 10  1  0  0  0  0
 50 15  1  0  0  0  0
 51 16  1  0  0  0  0
 52 17  1  0  0  0  0
 54 19  1  0  0  0  0
 55 20  1  0  0  0  0
 56 21  1  0  0  0  0
 58 25  1  0  0  0  0
 61 28  1  0  0  0  0
 62 29  1  0  0  0  0
 63 30  1  0  0  0  0
 64 31  1  0  0  0  0
 65 32  1  0  0  0  0
 71  3  1  0  0  0  0
 72  6  1  0  0  0  0
 73 15  1  0  0  0  0
 75 17  1  0  0  0  0
 77 19  1  0  0  0  0
 79 21  1  0  0  0  0
 81 28  1  0  0  0  0
 84 38  1  0  0  0  0
 85 39  1  0  0  0  0
M  END
>  <IC50_NM>
0.6

>  <number_of_rotatable_bonds>
3

>  <charge>
0

>  <lm5_entropy_jk>
30.51387600249522

$$$$
