6QBH
 OpenBabel11252210453D

 81 82  0  0  1  0  0  0  0  0999 V2000
    8.4990   18.4680    8.8390 N   0  0  0  0  0  0  0  0  0  0  0  0
   11.3000   17.9850    7.4020 C   0  0  1  0  0  0  0  0  0  0  0  0
   12.2240   18.7810    6.6640 O   0  0  0  0  0  0  0  0  0  0  0  0
    9.9110   18.2940    6.8380 C   0  0  0  0  0  0  0  0  0  0  0  0
    5.0250   17.2620    9.0560 N   0  0  0  0  0  0  0  0  0  0  0  0
   11.4210   15.0850    3.8820 O   0  0  0  0  0  0  0  0  0  0  0  0
    8.8540   17.7160    7.7870 C   0  0  0  0  0  0  0  0  0  0  0  0
   11.9240   16.1440    5.8860 N   0  0  0  0  0  0  0  0  0  0  0  0
    5.8990   19.1310    8.1260 O   0  0  0  0  0  0  0  0  0  0  0  0
    7.3120   17.9590    9.6650 C   0  0  1  0  0  0  0  0  0  0  0  0
    8.3540   16.6190    7.5480 O   0  0  0  0  0  0  0  0  0  0  0  0
    7.2890   18.6470   11.0460 C   0  0  0  0  0  0  0  0  0  0  0  0
   10.0930   14.5970    5.7160 O   0  0  0  0  0  0  0  0  0  0  0  0
    6.2400   17.9810   11.9820 C   0  0  0  0  0  0  0  0  0  0  0  0
    6.9990   20.1560   10.9330 C   0  0  0  0  0  0  0  0  0  0  0  0
    6.0080   18.1720    8.8720 C   0  0  0  0  0  0  0  0  0  0  0  0
    3.6980   17.3720    8.4600 C   0  0  0  0  0  0  0  0  0  0  0  0
    3.4980   16.2010    7.4910 C   0  0  0  0  0  0  0  0  0  0  0  0
    4.5610   16.2080    6.3770 C   0  0  0  0  0  0  0  0  0  0  0  0
    4.2890   17.3290    5.3550 C   0  0  0  0  0  0  0  0  0  0  0  0
    5.2350   17.2990    4.1450 C   0  0  0  0  0  0  0  0  0  0  0  0
    6.4070   18.2580    4.4010 C   0  0  0  0  0  0  0  0  0  0  0  0
    7.7900   17.6300    4.1590 C   0  0  0  0  0  0  0  0  0  0  0  0
    8.0180   16.9720    2.8000 C   0  0  0  0  0  0  0  0  0  0  0  0
    9.5100   16.7750    2.4270 C   0  0  0  0  0  0  0  0  0  0  0  0
    9.9040   15.3700    1.9170 C   0  0  0  0  0  0  0  0  0  0  0  0
   10.5590   14.4170    2.9200 C   0  0  0  0  0  0  0  0  0  0  0  0
   11.7680   16.5080    7.2830 C   0  0  1  0  0  0  0  0  0  0  0  0
   11.0290   15.1660    5.1680 C   0  0  0  0  0  0  0  0  0  0  0  0
   13.0740   16.1880    8.0570 C   0  0  0  0  0  0  0  0  0  0  0  0
   13.5440   14.7420    8.0460 C   0  0  0  0  0  0  0  0  0  0  0  0
   12.7670   13.7470    8.4830 C   0  0  0  0  0  0  0  0  0  0  0  0
   13.1880   12.4710    8.5230 C   0  0  0  0  0  0  0  0  0  0  0  0
   14.4220   12.1460    8.1570 C   0  0  0  0  0  0  0  0  0  0  0  0
   15.2450   13.1350    7.7560 C   0  0  0  0  0  0  0  0  0  0  0  0
   14.8110   14.4210    7.7050 C   0  0  0  0  0  0  0  0  0  0  0  0
   15.4980   15.1990    7.3830 H   0  0  0  0  0  0  0  0  0  0  0  0
    8.8420   19.4210    8.9320 H   0  0  0  0  0  0  0  0  0  0  0  0
   11.3180   18.2910    8.4500 H   0  0  0  0  0  0  0  0  0  0  0  0
   12.9550   19.0990    7.3040 H   0  0  0  0  0  0  0  0  0  0  0  0
    9.8290   17.8400    5.8560 H   0  0  0  0  0  0  0  0  0  0  0  0
    5.1880   16.4840    9.6850 H   0  0  0  0  0  0  0  0  0  0  0  0
   12.7260   16.5020    5.3950 H   0  0  0  0  0  0  0  0  0  0  0  0
    7.4210   16.8890    9.8330 H   0  0  0  0  0  0  0  0  0  0  0  0
    8.2720   18.5160   11.5040 H   0  0  0  0  0  0  0  0  0  0  0  0
    6.4210   16.9080   12.0590 H   0  0  0  0  0  0  0  0  0  0  0  0
    7.7010   20.6400   10.2580 H   0  0  0  0  0  0  0  0  0  0  0  0
    3.5810   18.3310    7.9450 H   0  0  0  0  0  0  0  0  0  0  0  0
    2.4950   16.2400    7.0590 H   0  0  0  0  0  0  0  0  0  0  0  0
    4.5050   15.2490    5.8570 H   0  0  0  0  0  0  0  0  0  0  0  0
    4.2850   18.3120    5.8300 H   0  0  0  0  0  0  0  0  0  0  0  0
    4.6930   17.6400    3.2650 H   0  0  0  0  0  0  0  0  0  0  0  0
    6.4030   18.6350    5.4270 H   0  0  0  0  0  0  0  0  0  0  0  0
    7.9890   16.8950    4.9410 H   0  0  0  0  0  0  0  0  0  0  0  0
    7.5660   17.6080    2.0380 H   0  0  0  0  0  0  0  0  0  0  0  0
   10.1510   17.0860    3.2530 H   0  0  0  0  0  0  0  0  0  0  0  0
   10.6290   15.5160    1.1140 H   0  0  0  0  0  0  0  0  0  0  0  0
   11.1630   13.6890    2.3700 H   0  0  0  0  0  0  0  0  0  0  0  0
   10.9760   15.8840    7.7120 H   0  0  0  0  0  0  0  0  0  0  0  0
   12.9240   16.4680    9.1020 H   0  0  0  0  0  0  0  0  0  0  0  0
   11.7620   13.9700    8.8110 H   0  0  0  0  0  0  0  0  0  0  0  0
   12.5150   11.6970    8.8850 H   0  0  0  0  0  0  0  0  0  0  0  0
   14.7610   11.1120    8.1970 H   0  0  0  0  0  0  0  0  0  0  0  0
   16.2660   12.9050    7.4600 H   0  0  0  0  0  0  0  0  0  0  0  0
   13.8710   16.8340    7.6850 H   0  0  0  0  0  0  0  0  0  0  0  0
    9.7600   19.3700    6.7260 H   0  0  0  0  0  0  0  0  0  0  0  0
    5.2200   18.1430   11.6270 H   0  0  0  0  0  0  0  0  0  0  0  0
    7.0880   20.6350   11.9090 H   0  0  0  0  0  0  0  0  0  0  0  0
    2.9460   17.3230    9.2550 H   0  0  0  0  0  0  0  0  0  0  0  0
    3.5700   15.2610    8.0450 H   0  0  0  0  0  0  0  0  0  0  0  0
    5.5760   16.2910    6.7670 H   0  0  0  0  0  0  0  0  0  0  0  0
    3.2750   17.1820    4.9730 H   0  0  0  0  0  0  0  0  0  0  0  0
    5.5660   16.2750    3.9630 H   0  0  0  0  0  0  0  0  0  0  0  0
    6.2930   19.1310    3.7530 H   0  0  0  0  0  0  0  0  0  0  0  0
    8.5100   18.4440    4.2640 H   0  0  0  0  0  0  0  0  0  0  0  0
    7.5130   16.0040    2.7870 H   0  0  0  0  0  0  0  0  0  0  0  0
    9.7390   17.4780    1.6250 H   0  0  0  0  0  0  0  0  0  0  0  0
    9.0480   14.8800    1.4480 H   0  0  0  0  0  0  0  0  0  0  0  0
    9.7770   13.8600    3.4420 H   0  0  0  0  0  0  0  0  0  0  0  0
    5.9880   20.3420   10.5640 H   0  0  0  0  0  0  0  0  0  0  0  0
    6.3130   18.4040   12.9870 H   0  0  0  0  0  0  0  0  0  0  0  0
  1 38  1  0  0  0  0
  1 10  1  0  0  0  0
  2 39  1  1  0  0  0
  2 28  1  0  0  0  0
  3 40  1  0  0  0  0
  3  2  1  0  0  0  0
  4  2  1  0  0  0  0
  4  7  1  0  0  0  0
  5 42  1  0  0  0  0
  6 29  1  0  0  0  0
  7  1  1  0  0  0  0
  8 28  1  0  0  0  0
  9 16  2  0  0  0  0
 10 44  1  1  0  0  0
 10 12  1  0  0  0  0
 11  7  2  0  0  0  0
 12 45  1  0  0  0  0
 12 14  1  0  0  0  0
 14 46  1  0  0  0  0
 14 81  1  0  0  0  0
 15 12  1  0  0  0  0
 15 68  1  0  0  0  0
 16  5  1  0  0  0  0
 16 10  1  0  0  0  0
 17  5  1  0  0  0  0
 17 69  1  0  0  0  0
 18 70  1  0  0  0  0
 18 17  1  0  0  0  0
 19 71  1  0  0  0  0
 19 18  1  0  0  0  0
 20 51  1  0  0  0  0
 20 19  1  0  0  0  0
 21 22  1  0  0  0  0
 21 20  1  0  0  0  0
 22 53  1  0  0  0  0
 23 75  1  0  0  0  0
 23 22  1  0  0  0  0
 23 54  1  0  0  0  0
 24 23  1  0  0  0  0
 25 24  1  0  0  0  0
 25 56  1  0  0  0  0
 26 25  1  0  0  0  0
 26 27  1  0  0  0  0
 27 79  1  0  0  0  0
 27  6  1  0  0  0  0
 28 59  1  1  0  0  0
 28 30  1  0  0  0  0
 29 13  2  0  0  0  0
 29  8  1  0  0  0  0
 30 60  1  0  0  0  0
 31 30  1  0  0  0  0
 31 32  2  0  0  0  0
 32 33  1  0  0  0  0
 32 61  1  0  0  0  0
 33 62  1  0  0  0  0
 34 63  1  0  0  0  0
 34 33  2  0  0  0  0
 35 34  1  0  0  0  0
 36 35  2  0  0  0  0
 36 31  1  0  0  0  0
 37 36  1  0  0  0  0
 41  4  1  0  0  0  0
 43  8  1  0  0  0  0
 47 15  1  0  0  0  0
 48 17  1  0  0  0  0
 49 18  1  0  0  0  0
 50 19  1  0  0  0  0
 52 21  1  0  0  0  0
 55 24  1  0  0  0  0
 57 26  1  0  0  0  0
 58 27  1  0  0  0  0
 64 35  1  0  0  0  0
 65 30  1  0  0  0  0
 66  4  1  0  0  0  0
 67 14  1  0  0  0  0
 72 20  1  0  0  0  0
 73 21  1  0  0  0  0
 74 22  1  0  0  0  0
 76 24  1  0  0  0  0
 77 25  1  0  0  0  0
 78 26  1  0  0  0  0
 80 15  1  0  0  0  0
M  END
>  <IC50_NM>
2.5

>  <number_of_rotatable_bonds>
3

>  <charge>
0

>  <lm5_entropy_jk>
31.13362949117809

$$$$
