6QCB
 OpenBabel11252210453D

 80 81  0  0  1  0  0  0  0  0999 V2000
    8.3800   18.3900    8.8790 N   0  0  0  0  0  0  0  0  0  0  0  0
   11.2600   17.9280    7.5130 C   0  0  1  0  0  0  0  0  0  0  0  0
   12.1990   18.7440    6.7820 O   0  0  0  0  0  0  0  0  0  0  0  0
    9.8830   18.2140    6.9530 C   0  0  0  0  0  0  0  0  0  0  0  0
    4.9800   17.2800    9.1080 N   0  0  0  0  0  0  0  0  0  0  0  0
    5.8670   19.1320    8.1240 O   0  0  0  0  0  0  0  0  0  0  0  0
    8.7550   17.6540    7.7970 C   0  0  0  0  0  0  0  0  0  0  0  0
   11.8220   16.0610    6.0350 N   0  0  0  0  0  0  0  0  0  0  0  0
    8.2240   16.5490    7.5670 O   0  0  0  0  0  0  0  0  0  0  0  0
    7.2730   17.9690    9.7040 C   0  0  1  0  0  0  0  0  0  0  0  0
   10.4080   14.2440    6.1010 O   0  0  0  0  0  0  0  0  0  0  0  0
    7.2180   18.7130   11.0660 C   0  0  0  0  0  0  0  0  0  0  0  0
    6.3190   17.9770   12.0440 C   0  0  0  0  0  0  0  0  0  0  0  0
    6.8950   20.1880   10.9680 C   0  0  0  0  0  0  0  0  0  0  0  0
    5.9750   18.1700    8.8990 C   0  0  0  0  0  0  0  0  0  0  0  0
    3.6710   17.3590    8.4730 C   0  0  0  0  0  0  0  0  0  0  0  0
    3.5940   16.3020    7.3880 C   0  0  0  0  0  0  0  0  0  0  0  0
    4.5820   16.3730    6.2320 C   0  0  0  0  0  0  0  0  0  0  0  0
    4.3000   17.4720    5.2310 C   0  0  0  0  0  0  0  0  0  0  0  0
    5.4760   17.9110    4.3630 C   0  0  0  0  0  0  0  0  0  0  0  0
    6.3470   16.8180    3.8570 C   0  0  0  0  0  0  0  0  0  0  0  0
    7.3720   17.3750    2.8770 C   0  0  0  0  0  0  0  0  0  0  0  0
    8.3200   16.3060    2.4610 C   0  0  0  0  0  0  0  0  0  0  0  0
    9.3730   16.1860    3.4970 C   0  0  0  0  0  0  0  0  0  0  0  0
   10.1890   14.9540    3.2200 C   0  0  0  0  0  0  0  0  0  0  0  0
   11.4680   14.8160    4.0040 C   0  0  0  0  0  0  0  0  0  0  0  0
   11.6720   16.4200    7.4190 C   0  0  1  0  0  0  0  0  0  0  0  0
   11.1790   15.0200    5.4620 C   0  0  0  0  0  0  0  0  0  0  0  0
   12.9730   16.2050    8.1790 C   0  0  0  0  0  0  0  0  0  0  0  0
   13.4580   14.8150    8.2360 C   0  0  0  0  0  0  0  0  0  0  0  0
   12.6620   13.7700    8.6810 C   0  0  0  0  0  0  0  0  0  0  0  0
   13.1580   12.4590    8.7470 C   0  0  0  0  0  0  0  0  0  0  0  0
   14.4620   12.2050    8.3840 C   0  0  0  0  0  0  0  0  0  0  0  0
   15.2660   13.2510    7.9720 C   0  0  0  0  0  0  0  0  0  0  0  0
   14.7650   14.5530    7.8870 C   0  0  0  0  0  0  0  0  0  0  0  0
   15.4180   15.3550    7.5490 H   0  0  0  0  0  0  0  0  0  0  0  0
    8.7470   19.3370    8.9640 H   0  0  0  0  0  0  0  0  0  0  0  0
   11.2620   18.2370    8.5620 H   0  0  0  0  0  0  0  0  0  0  0  0
   12.9220   19.0990    7.4300 H   0  0  0  0  0  0  0  0  0  0  0  0
    9.7900   17.8220    5.9400 H   0  0  0  0  0  0  0  0  0  0  0  0
    5.1260   16.5170    9.7620 H   0  0  0  0  0  0  0  0  0  0  0  0
   12.5150   16.5670    5.4990 H   0  0  0  0  0  0  0  0  0  0  0  0
    7.3620   16.9000    9.9070 H   0  0  0  0  0  0  0  0  0  0  0  0
    8.2230   18.6430   11.4850 H   0  0  0  0  0  0  0  0  0  0  0  0
    6.4090   18.4150   13.0410 H   0  0  0  0  0  0  0  0  0  0  0  0
    7.5190   20.6790   10.2260 H   0  0  0  0  0  0  0  0  0  0  0  0
    3.5050   18.3540    8.0480 H   0  0  0  0  0  0  0  0  0  0  0  0
    2.5810   16.3040    6.9780 H   0  0  0  0  0  0  0  0  0  0  0  0
    4.5710   15.4160    5.7050 H   0  0  0  0  0  0  0  0  0  0  0  0
    3.9310   18.3580    5.7530 H   0  0  0  0  0  0  0  0  0  0  0  0
    6.0950   18.5950    4.9510 H   0  0  0  0  0  0  0  0  0  0  0  0
    5.7350   16.0630    3.3570 H   0  0  0  0  0  0  0  0  0  0  0  0
    7.9030   18.2330    3.3000 H   0  0  0  0  0  0  0  0  0  0  0  0
    8.7770   16.5710    1.5040 H   0  0  0  0  0  0  0  0  0  0  0  0
    8.9510   16.1100    4.4990 H   0  0  0  0  0  0  0  0  0  0  0  0
   10.4570   14.9280    2.1600 H   0  0  0  0  0  0  0  0  0  0  0  0
   12.1940   15.5510    3.6500 H   0  0  0  0  0  0  0  0  0  0  0  0
   10.8940   15.8110    7.8860 H   0  0  0  0  0  0  0  0  0  0  0  0
   12.8190   16.5190    9.2130 H   0  0  0  0  0  0  0  0  0  0  0  0
   11.6450   13.9610    8.9860 H   0  0  0  0  0  0  0  0  0  0  0  0
   12.5180   11.6480    9.0900 H   0  0  0  0  0  0  0  0  0  0  0  0
   14.8550   11.1910    8.4350 H   0  0  0  0  0  0  0  0  0  0  0  0
   16.3000   13.0600    7.6910 H   0  0  0  0  0  0  0  0  0  0  0  0
   13.7490   16.8570    7.7720 H   0  0  0  0  0  0  0  0  0  0  0  0
    9.7400   19.2940    6.8750 H   0  0  0  0  0  0  0  0  0  0  0  0
    6.6020   16.9250   12.1150 H   0  0  0  0  0  0  0  0  0  0  0  0
    7.0580   20.6800   11.9290 H   0  0  0  0  0  0  0  0  0  0  0  0
    2.8960   17.1710    9.2230 H   0  0  0  0  0  0  0  0  0  0  0  0
    3.7190   15.3280    7.8690 H   0  0  0  0  0  0  0  0  0  0  0  0
    5.5880   16.4940    6.6370 H   0  0  0  0  0  0  0  0  0  0  0  0
    3.4870   17.1400    4.5810 H   0  0  0  0  0  0  0  0  0  0  0  0
    5.0810   18.4900    3.5250 H   0  0  0  0  0  0  0  0  0  0  0  0
    6.8390   16.3420    4.7040 H   0  0  0  0  0  0  0  0  0  0  0  0
    6.8380   17.7240    1.9920 H   0  0  0  0  0  0  0  0  0  0  0  0
    7.7910   15.3600    2.3300 H   0  0  0  0  0  0  0  0  0  0  0  0
   10.0100   17.0730    3.4720 H   0  0  0  0  0  0  0  0  0  0  0  0
    9.5690   14.0710    3.4020 H   0  0  0  0  0  0  0  0  0  0  0  0
   11.9050   13.8270    3.8500 H   0  0  0  0  0  0  0  0  0  0  0  0
    5.8510   20.3430   10.6840 H   0  0  0  0  0  0  0  0  0  0  0  0
    5.2700   18.0390   11.7450 H   0  0  0  0  0  0  0  0  0  0  0  0
  1 37  1  0  0  0  0
  1 10  1  0  0  0  0
  2 38  1  1  0  0  0
  2 27  1  0  0  0  0
  3 39  1  0  0  0  0
  3  2  1  0  0  0  0
  4  2  1  0  0  0  0
  4  7  1  0  0  0  0
  5 41  1  0  0  0  0
  6 15  2  0  0  0  0
  7  1  1  0  0  0  0
  8 27  1  0  0  0  0
  9  7  2  0  0  0  0
 10 43  1  1  0  0  0
 10 12  1  0  0  0  0
 12 44  1  0  0  0  0
 12 13  1  0  0  0  0
 13 66  1  0  0  0  0
 13 45  1  0  0  0  0
 14 12  1  0  0  0  0
 14 67  1  0  0  0  0
 15  5  1  0  0  0  0
 15 10  1  0  0  0  0
 16  5  1  0  0  0  0
 16 68  1  0  0  0  0
 17 69  1  0  0  0  0
 17 16  1  0  0  0  0
 18 70  1  0  0  0  0
 18 17  1  0  0  0  0
 19 50  1  0  0  0  0
 19 18  1  0  0  0  0
 20 51  1  0  0  0  0
 20 19  1  0  0  0  0
 21 20  1  0  0  0  0
 21 73  1  0  0  0  0
 22 53  1  0  0  0  0
 22 21  1  0  0  0  0
 23 22  1  0  0  0  0
 23 24  1  0  0  0  0
 24 55  1  0  0  0  0
 25 77  1  0  0  0  0
 25 24  1  0  0  0  0
 25 26  1  0  0  0  0
 26 28  1  0  0  0  0
 27 58  1  1  0  0  0
 27 29  1  0  0  0  0
 28  8  1  0  0  0  0
 28 11  2  0  0  0  0
 29 30  1  0  0  0  0
 29 59  1  0  0  0  0
 30 31  2  0  0  0  0
 31 32  1  0  0  0  0
 31 60  1  0  0  0  0
 32 61  1  0  0  0  0
 33 62  1  0  0  0  0
 33 32  2  0  0  0  0
 34 33  1  0  0  0  0
 35 34  2  0  0  0  0
 35 30  1  0  0  0  0
 36 35  1  0  0  0  0
 40  4  1  0  0  0  0
 42  8  1  0  0  0  0
 46 14  1  0  0  0  0
 47 16  1  0  0  0  0
 48 17  1  0  0  0  0
 49 18  1  0  0  0  0
 52 21  1  0  0  0  0
 54 23  1  0  0  0  0
 56 25  1  0  0  0  0
 57 26  1  0  0  0  0
 63 34  1  0  0  0  0
 64 29  1  0  0  0  0
 65  4  1  0  0  0  0
 71 19  1  0  0  0  0
 72 20  1  0  0  0  0
 74 22  1  0  0  0  0
 75 23  1  0  0  0  0
 76 24  1  0  0  0  0
 78 26  1  0  0  0  0
 79 14  1  0  0  0  0
 80 13  1  0  0  0  0
M  END
>  <IC50_NM>
5.8

>  <number_of_rotatable_bonds>
3

>  <charge>
0

>  <lm5_entropy_jk>
30.51387600249522

$$$$
