model36
 OpenBabel11252210453D

 79 80  0  0  1  0  0  0  0  0999 V2000
   11.4070   17.7850    7.4140 C   0  0  0  0  0  0  0  0  0  0  0  0
    8.5110   18.3250    8.7640 N   0  0  0  0  0  0  0  0  0  0  0  0
   10.0150   18.1500    6.8250 C   0  0  0  0  0  0  0  0  0  0  0  0
    4.9980   17.4870    9.1610 N   0  0  0  0  0  0  0  0  0  0  0  0
    6.0060   19.2810    8.1030 O   0  0  0  0  0  0  0  0  0  0  0  0
    8.8440   17.6060    7.6540 C   0  0  0  0  0  0  0  0  0  0  0  0
   11.9140   15.8240    5.9780 N   0  0  0  0  0  0  0  0  0  0  0  0
    8.2800   16.5150    7.3690 O   0  0  0  0  0  0  0  0  0  0  0  0
    7.3690   17.9330    9.6010 C   0  0  1  0  0  0  0  0  0  0  0  0
   10.7170   13.8610    6.1940 O   0  0  0  0  0  0  0  0  0  0  0  0
    7.4630   18.5630   11.0290 C   0  0  0  0  0  0  0  0  0  0  0  0
    6.6270   17.7730   12.0600 C   0  0  0  0  0  0  0  0  0  0  0  0
    7.1080   20.0660   11.0670 C   0  0  0  0  0  0  0  0  0  0  0  0
    6.0490   18.2840    8.8760 C   0  0  0  0  0  0  0  0  0  0  0  0
    3.7070   17.5360    8.4490 C   0  0  0  0  0  0  0  0  0  0  0  0
    3.6090   16.3900    7.4130 C   0  0  0  0  0  0  0  0  0  0  0  0
    4.6790   16.4700    6.3020 C   0  0  0  0  0  0  0  0  0  0  0  0
    4.3920   17.5510    5.2320 C   0  0  0  0  0  0  0  0  0  0  0  0
    5.6260   17.9130    4.3700 C   0  0  0  0  0  0  0  0  0  0  0  0
    6.3920   16.6900    3.8210 C   0  0  0  0  0  0  0  0  0  0  0  0
    7.4370   17.0540    2.7460 C   0  0  0  0  0  0  0  0  0  0  0  0
    8.3930   15.8870    2.4000 C   0  0  0  0  0  0  0  0  0  0  0  0
    9.5670   15.7380    3.3910 C   0  0  0  0  0  0  0  0  0  0  0  0
   10.3700   14.4330    3.1960 C   0  0  0  0  0  0  0  0  0  0  0  0
   11.6880   14.3960    4.0170 C   0  0  0  0  0  0  0  0  0  0  0  0
   11.7760   16.2820    7.3690 C   0  0  1  0  0  0  0  0  0  0  0  0
   11.4180   14.6610    5.4960 C   0  0  0  0  0  0  0  0  0  0  0  0
   13.0890   16.0270    8.1700 C   0  0  0  0  0  0  0  0  0  0  0  0
   13.5490   14.5820    8.1090 C   0  0  0  0  0  0  0  0  0  0  0  0
   12.8930   13.5880    8.8690 C   0  0  0  0  0  0  0  0  0  0  0  0
   13.2760   12.2390    8.7820 C   0  0  0  0  0  0  0  0  0  0  0  0
   14.3370   11.8600    7.9370 C   0  0  0  0  0  0  0  0  0  0  0  0
   15.0110   12.8440    7.1910 C   0  0  0  0  0  0  0  0  0  0  0  0
   14.6110   14.1930    7.2650 C   0  0  0  0  0  0  0  0  0  0  0  0
   15.1100   14.9530    6.6580 H   0  0  0  0  0  0  0  0  0  0  0  0
    8.8850   19.2820    8.8610 H   0  0  0  0  0  0  0  0  0  0  0  0
    9.9070   17.7450    5.8060 H   0  0  0  0  0  0  0  0  0  0  0  0
    5.1890   16.6220    9.6870 H   0  0  0  0  0  0  0  0  0  0  0  0
   12.6340   16.2890    5.4090 H   0  0  0  0  0  0  0  0  0  0  0  0
    7.4150   16.8430    9.7180 H   0  0  0  0  0  0  0  0  0  0  0  0
    8.5160   18.4420   11.3160 H   0  0  0  0  0  0  0  0  0  0  0  0
   11.4860   18.1370    8.4510 H   0  0  0  0  0  0  0  0  0  0  0  0
   12.1790   18.3600    6.8760 H   0  0  0  0  0  0  0  0  0  0  0  0
    6.8230   18.1640   13.0710 H   0  0  0  0  0  0  0  0  0  0  0  0
    7.7010   20.6460   10.3510 H   0  0  0  0  0  0  0  0  0  0  0  0
    3.6150   18.5190    7.9750 H   0  0  0  0  0  0  0  0  0  0  0  0
    2.5910   16.4020    6.9790 H   0  0  0  0  0  0  0  0  0  0  0  0
    4.7570   15.4830    5.8170 H   0  0  0  0  0  0  0  0  0  0  0  0
    4.0250   18.4700    5.7180 H   0  0  0  0  0  0  0  0  0  0  0  0
    6.3180   18.5170    4.9820 H   0  0  0  0  0  0  0  0  0  0  0  0
    5.6820   15.9600    3.3910 H   0  0  0  0  0  0  0  0  0  0  0  0
    8.0310   17.9190    3.0920 H   0  0  0  0  0  0  0  0  0  0  0  0
    8.7980   16.0220    1.3810 H   0  0  0  0  0  0  0  0  0  0  0  0
    9.1900   15.7820    4.4260 H   0  0  0  0  0  0  0  0  0  0  0  0
   10.6290   14.3070    2.1280 H   0  0  0  0  0  0  0  0  0  0  0  0
   12.3920   15.1440    3.6200 H   0  0  0  0  0  0  0  0  0  0  0  0
   10.9760   15.6730    7.8020 H   0  0  0  0  0  0  0  0  0  0  0  0
   12.9030   16.3460    9.2050 H   0  0  0  0  0  0  0  0  0  0  0  0
   12.0760   13.8760    9.5320 H   0  0  0  0  0  0  0  0  0  0  0  0
   12.7280   11.4810    9.3480 H   0  0  0  0  0  0  0  0  0  0  0  0
   14.6230   10.8080    7.8530 H   0  0  0  0  0  0  0  0  0  0  0  0
   15.8380   12.5570    6.5310 H   0  0  0  0  0  0  0  0  0  0  0  0
   13.8720   16.6890    7.7720 H   0  0  0  0  0  0  0  0  0  0  0  0
    9.9280   19.2490    6.7890 H   0  0  0  0  0  0  0  0  0  0  0  0
    6.8810   16.6990   12.0460 H   0  0  0  0  0  0  0  0  0  0  0  0
    7.2900   20.4630   12.0780 H   0  0  0  0  0  0  0  0  0  0  0  0
    2.8960   17.4420    9.1930 H   0  0  0  0  0  0  0  0  0  0  0  0
    3.7030   15.4320    7.9580 H   0  0  0  0  0  0  0  0  0  0  0  0
    5.6610   16.6500    6.7660 H   0  0  0  0  0  0  0  0  0  0  0  0
    3.5720   17.1910    4.5800 H   0  0  0  0  0  0  0  0  0  0  0  0
    5.3020   18.5570    3.5320 H   0  0  0  0  0  0  0  0  0  0  0  0
    6.8890   16.1860    4.6650 H   0  0  0  0  0  0  0  0  0  0  0  0
    6.9050   17.3810    1.8370 H   0  0  0  0  0  0  0  0  0  0  0  0
    7.8130   14.9470    2.3700 H   0  0  0  0  0  0  0  0  0  0  0  0
   10.2460   16.6010    3.2770 H   0  0  0  0  0  0  0  0  0  0  0  0
    9.7450   13.5660    3.4700 H   0  0  0  0  0  0  0  0  0  0  0  0
   12.1650   13.4070    3.9180 H   0  0  0  0  0  0  0  0  0  0  0  0
    6.0430   20.2230   10.8310 H   0  0  0  0  0  0  0  0  0  0  0  0
    5.5440   17.8620   11.8650 H   0  0  0  0  0  0  0  0  0  0  0  0
  1 42  1  0  0  0  0
  2 36  1  0  0  0  0
  2  9  1  0  0  0  0
  3  1  1  0  0  0  0
  3  6  1  0  0  0  0
  4 38  1  0  0  0  0
  5 14  2  0  0  0  0
  6  2  1  0  0  0  0
  7 26  1  0  0  0  0
  8  6  2  0  0  0  0
  9 40  1  1  0  0  0
  9 11  1  0  0  0  0
 11 13  1  0  0  0  0
 11 41  1  0  0  0  0
 11 12  1  0  0  0  0
 12 44  1  0  0  0  0
 13 66  1  0  0  0  0
 14  4  1  0  0  0  0
 14  9  1  0  0  0  0
 15  4  1  0  0  0  0
 15 67  1  0  0  0  0
 16 68  1  0  0  0  0
 16 15  1  0  0  0  0
 17 69  1  0  0  0  0
 17 16  1  0  0  0  0
 18 49  1  0  0  0  0
 18 17  1  0  0  0  0
 19 50  1  0  0  0  0
 19 18  1  0  0  0  0
 20 19  1  0  0  0  0
 20 72  1  0  0  0  0
 21 52  1  0  0  0  0
 21 20  1  0  0  0  0
 22 21  1  0  0  0  0
 22 23  1  0  0  0  0
 23 54  1  0  0  0  0
 24 23  1  0  0  0  0
 24 76  1  0  0  0  0
 24 25  1  0  0  0  0
 25 27  1  0  0  0  0
 26  1  1  0  0  0  0
 26 57  1  1  0  0  0
 26 28  1  0  0  0  0
 27  7  1  0  0  0  0
 27 10  2  0  0  0  0
 28 58  1  0  0  0  0
 29 28  1  0  0  0  0
 29 30  2  0  0  0  0
 30 59  1  0  0  0  0
 31 30  1  0  0  0  0
 31 60  1  0  0  0  0
 32 31  2  0  0  0  0
 33 34  2  0  0  0  0
 33 32  1  0  0  0  0
 34 29  1  0  0  0  0
 35 34  1  0  0  0  0
 37  3  1  0  0  0  0
 39  7  1  0  0  0  0
 43  1  1  0  0  0  0
 45 13  1  0  0  0  0
 46 15  1  0  0  0  0
 47 16  1  0  0  0  0
 48 17  1  0  0  0  0
 51 20  1  0  0  0  0
 53 22  1  0  0  0  0
 55 24  1  0  0  0  0
 56 25  1  0  0  0  0
 61 32  1  0  0  0  0
 62 33  1  0  0  0  0
 63 28  1  0  0  0  0
 64  3  1  0  0  0  0
 65 12  1  0  0  0  0
 70 18  1  0  0  0  0
 71 19  1  0  0  0  0
 73 21  1  0  0  0  0
 74 22  1  0  0  0  0
 75 23  1  0  0  0  0
 77 25  1  0  0  0  0
 78 13  1  0  0  0  0
 79 12  1  0  0  0  0
M  END
>  <IC50_NM>
2000

>  <number_of_rotatable_bonds>
3

>  <charge>
0

>  <lm5_entropy_jk>
30.51387600249522

$$$$
