model22
 OpenBabel11252210453D

 84 86  0  0  1  0  0  0  0  0999 V2000
   14.1400   12.0910    7.3500 C   0  0  0  0  0  0  0  0  0  0  0  0
    7.2590   17.7990    9.4540 C   0  0  2  0  0  0  0  0  0  0  0  0
   13.1520   12.0050    8.3330 N   0  0  0  0  0  0  0  0  0  0  0  0
    8.4260   18.2440    8.6830 N   0  0  0  0  0  0  0  0  0  0  0  0
    5.9000   19.3640    8.1950 O   0  0  0  0  0  0  0  0  0  0  0  0
   14.8880   11.0720    6.7400 C   0  0  0  0  0  0  0  0  0  0  0  0
   13.1130   15.7200    7.8170 C   0  0  0  0  0  0  0  0  0  0  0  0
   11.9900   16.0350    5.5850 N   0  0  0  0  0  0  0  0  0  0  0  0
    8.5870   16.3120    7.4390 O   0  0  0  0  0  0  0  0  0  0  0  0
   15.8600   11.4650    5.8000 C   0  0  0  0  0  0  0  0  0  0  0  0
   11.8450   16.1900    7.0350 C   0  0  2  0  0  0  0  0  0  0  0  0
    4.9220   17.3650    8.8250 N   0  0  0  0  0  0  0  0  0  0  0  0
   10.7120   14.1330    5.3270 O   0  0  0  0  0  0  0  0  0  0  0  0
   16.0510   12.8330    5.4700 C   0  0  0  0  0  0  0  0  0  0  0  0
   11.5120   17.6840    7.3460 C   0  0  1  0  0  0  0  0  0  0  0  0
   12.4800   18.5340    6.6650 O   0  0  0  0  0  0  0  0  0  0  0  0
   15.2730   13.8440    6.0590 C   0  0  0  0  0  0  0  0  0  0  0  0
   10.1000   18.1460    6.9020 C   0  0  0  0  0  0  0  0  0  0  0  0
   14.2960   13.4770    7.0170 C   0  0  0  0  0  0  0  0  0  0  0  0
    8.9570   17.4930    7.6820 C   0  0  0  0  0  0  0  0  0  0  0  0
   11.3760   15.0930    4.8310 C   0  0  0  0  0  0  0  0  0  0  0  0
   13.3360   14.2250    7.8030 C   0  0  0  0  0  0  0  0  0  0  0  0
   12.6560   13.2830    8.5810 C   0  0  0  0  0  0  0  0  0  0  0  0
   11.4120   15.3120    3.3210 C   0  0  0  0  0  0  0  0  0  0  0  0
    3.5130   17.7250    8.5550 C   0  0  0  0  0  0  0  0  0  0  0  0
    9.9590   15.5650    2.8080 C   0  0  0  0  0  0  0  0  0  0  0  0
    9.1850   16.5700    3.6900 C   0  0  0  0  0  0  0  0  0  0  0  0
    7.7260   16.8420    3.2630 C   0  0  0  0  0  0  0  0  0  0  0  0
    6.8430   17.3340    4.4330 C   0  0  0  0  0  0  0  0  0  0  0  0
    5.4320   17.7690    3.9800 C   0  0  0  0  0  0  0  0  0  0  0  0
    2.7140   16.5330    7.9780 C   0  0  0  0  0  0  0  0  0  0  0  0
    5.9540   18.2350    8.7530 C   0  0  0  0  0  0  0  0  0  0  0  0
    7.3200   18.3290   10.9270 C   0  0  0  0  0  0  0  0  0  0  0  0
    2.6120   16.4440    6.4350 C   0  0  0  0  0  0  0  0  0  0  0  0
    3.9390   16.4430    5.6230 C   0  0  0  0  0  0  0  0  0  0  0  0
    4.3890   17.8410    5.1210 C   0  0  0  0  0  0  0  0  0  0  0  0
    6.3140   17.5870   11.8300 C   0  0  0  0  0  0  0  0  0  0  0  0
    7.1260   19.8580   11.0470 C   0  0  0  0  0  0  0  0  0  0  0  0
    7.7980   20.4190   10.3880 H   0  0  0  0  0  0  0  0  0  0  0  0
    8.6970   19.2350    8.7460 H   0  0  0  0  0  0  0  0  0  0  0  0
    7.3020   16.7040    9.4890 H   0  0  0  0  0  0  0  0  0  0  0  0
   13.0010   16.0700    8.8550 H   0  0  0  0  0  0  0  0  0  0  0  0
   10.9890   15.5670    7.3200 H   0  0  0  0  0  0  0  0  0  0  0  0
   11.6320   17.8530    8.4260 H   0  0  0  0  0  0  0  0  0  0  0  0
    9.9560   17.9190    5.8390 H   0  0  0  0  0  0  0  0  0  0  0  0
   11.8930   13.4430    9.3400 H   0  0  0  0  0  0  0  0  0  0  0  0
   12.6790   11.1250    8.5600 H   0  0  0  0  0  0  0  0  0  0  0  0
   14.7250   10.0210    6.9920 H   0  0  0  0  0  0  0  0  0  0  0  0
   16.4740   10.6980    5.3130 H   0  0  0  0  0  0  0  0  0  0  0  0
   16.8210   13.1000    4.7370 H   0  0  0  0  0  0  0  0  0  0  0  0
   11.8380   14.4230    2.8280 H   0  0  0  0  0  0  0  0  0  0  0  0
   15.4010   14.8890    5.7730 H   0  0  0  0  0  0  0  0  0  0  0  0
    3.4990   18.5890    7.8820 H   0  0  0  0  0  0  0  0  0  0  0  0
    9.4080   14.6110    2.7780 H   0  0  0  0  0  0  0  0  0  0  0  0
    9.7390   17.5250    3.7180 H   0  0  0  0  0  0  0  0  0  0  0  0
    7.2700   15.9220    2.8540 H   0  0  0  0  0  0  0  0  0  0  0  0
    7.3310   18.1770    4.9550 H   0  0  0  0  0  0  0  0  0  0  0  0
    5.0620   17.0620    3.2120 H   0  0  0  0  0  0  0  0  0  0  0  0
    1.6860   16.5890    8.3820 H   0  0  0  0  0  0  0  0  0  0  0  0
   12.6570   16.6650    5.1300 H   0  0  0  0  0  0  0  0  0  0  0  0
    5.0690   16.4780    9.3270 H   0  0  0  0  0  0  0  0  0  0  0  0
    8.3330   18.0660   11.2710 H   0  0  0  0  0  0  0  0  0  0  0  0
    1.9730   17.2710    6.0790 H   0  0  0  0  0  0  0  0  0  0  0  0
    3.7930   15.8010    4.7360 H   0  0  0  0  0  0  0  0  0  0  0  0
    3.4960   18.3760    4.7500 H   0  0  0  0  0  0  0  0  0  0  0  0
   13.0610   19.0410    7.3660 H   0  0  0  0  0  0  0  0  0  0  0  0
    6.4330   16.4920   11.7670 H   0  0  0  0  0  0  0  0  0  0  0  0
    7.3140   20.1650   12.0870 H   0  0  0  0  0  0  0  0  0  0  0  0
   13.9880   16.2350    7.3950 H   0  0  0  0  0  0  0  0  0  0  0  0
   10.0560   19.2350    7.0350 H   0  0  0  0  0  0  0  0  0  0  0  0
   12.0290   16.1860    3.0740 H   0  0  0  0  0  0  0  0  0  0  0  0
    3.0600   18.0490    9.5110 H   0  0  0  0  0  0  0  0  0  0  0  0
   10.0290   15.9360    1.7720 H   0  0  0  0  0  0  0  0  0  0  0  0
    9.1650   16.1840    4.7210 H   0  0  0  0  0  0  0  0  0  0  0  0
    7.7020   17.5860    2.4500 H   0  0  0  0  0  0  0  0  0  0  0  0
    6.7690   16.5290    5.1840 H   0  0  0  0  0  0  0  0  0  0  0  0
    5.5030   18.7540    3.4840 H   0  0  0  0  0  0  0  0  0  0  0  0
    3.1380   15.5970    8.3870 H   0  0  0  0  0  0  0  0  0  0  0  0
    2.0490   15.5190    6.2120 H   0  0  0  0  0  0  0  0  0  0  0  0
    4.7380   15.9690    6.2180 H   0  0  0  0  0  0  0  0  0  0  0  0
    4.7890   18.4430    5.9520 H   0  0  0  0  0  0  0  0  0  0  0  0
    5.2690   17.8210   11.5600 H   0  0  0  0  0  0  0  0  0  0  0  0
    6.0930   20.1410   10.7910 H   0  0  0  0  0  0  0  0  0  0  0  0
    6.4590   17.8950   12.8780 H   0  0  0  0  0  0  0  0  0  0  0  0
  1  3  1  0  0  0  0
  2 41  1  1  0  0  0
  2 33  1  0  0  0  0
  3 47  1  0  0  0  0
  3 23  1  0  0  0  0
  4 40  1  0  0  0  0
  4  2  1  0  0  0  0
  5 32  2  0  0  0  0
  6 48  1  0  0  0  0
  6  1  2  0  0  0  0
  7 42  1  0  0  0  0
  8 11  1  0  0  0  0
  9 20  2  0  0  0  0
 10  6  1  0  0  0  0
 11 43  1  1  0  0  0
 11 15  1  0  0  0  0
 11  7  1  0  0  0  0
 12 61  1  0  0  0  0
 14 10  2  0  0  0  0
 14 17  1  0  0  0  0
 15 44  1  1  0  0  0
 16 15  1  0  0  0  0
 16 66  1  0  0  0  0
 17 19  2  0  0  0  0
 18 70  1  0  0  0  0
 18 15  1  0  0  0  0
 18 20  1  0  0  0  0
 19  1  1  0  0  0  0
 19 22  1  0  0  0  0
 20  4  1  0  0  0  0
 21 13  2  0  0  0  0
 21  8  1  0  0  0  0
 22  7  1  0  0  0  0
 22 23  2  0  0  0  0
 23 46  1  0  0  0  0
 24 21  1  0  0  0  0
 25 12  1  0  0  0  0
 25 72  1  0  0  0  0
 26 24  1  0  0  0  0
 26 27  1  0  0  0  0
 27 55  1  0  0  0  0
 27 74  1  0  0  0  0
 28 27  1  0  0  0  0
 28 29  1  0  0  0  0
 29 57  1  0  0  0  0
 29 76  1  0  0  0  0
 30 29  1  0  0  0  0
 30 36  1  0  0  0  0
 31 59  1  0  0  0  0
 31 78  1  0  0  0  0
 31 25  1  0  0  0  0
 32 12  1  0  0  0  0
 32  2  1  0  0  0  0
 33 38  1  0  0  0  0
 33 62  1  0  0  0  0
 33 37  1  0  0  0  0
 34 31  1  0  0  0  0
 35 80  1  0  0  0  0
 35 34  1  0  0  0  0
 36 35  1  0  0  0  0
 36 81  1  0  0  0  0
 37 84  1  0  0  0  0
 38 68  1  0  0  0  0
 39 38  1  0  0  0  0
 45 18  1  0  0  0  0
 49 10  1  0  0  0  0
 50 14  1  0  0  0  0
 51 24  1  0  0  0  0
 52 17  1  0  0  0  0
 53 25  1  0  0  0  0
 54 26  1  0  0  0  0
 56 28  1  0  0  0  0
 58 30  1  0  0  0  0
 60  8  1  0  0  0  0
 63 34  1  0  0  0  0
 64 35  1  0  0  0  0
 65 36  1  0  0  0  0
 67 37  1  0  0  0  0
 69  7  1  0  0  0  0
 71 24  1  0  0  0  0
 73 26  1  0  0  0  0
 75 28  1  0  0  0  0
 77 30  1  0  0  0  0
 79 34  1  0  0  0  0
 82 37  1  0  0  0  0
 83 38  1  0  0  0  0
M  END
>  <IC50_NM>
188

>  <number_of_rotatable_bonds>
3

>  <charge>
0

>  <lm5_entropy_jk>
30.51387600249522

$$$$
