model24
 OpenBabel11252210453D

 76 77  0  0  1  0  0  0  0  0999 V2000
   13.4310   14.6110    8.1250 C   0  0  0  0  0  0  0  0  0  0  0  0
   11.3060   17.8480    7.4870 C   0  0  1  0  0  0  0  0  0  0  0  0
   14.4170   14.1870    7.2340 N   0  0  0  0  0  0  0  0  0  0  0  0
    8.4490   18.3370    8.8750 N   0  0  0  0  0  0  0  0  0  0  0  0
   12.2850   18.6570    6.7770 O   0  0  0  0  0  0  0  0  0  0  0  0
   13.6120   12.0640    8.5220 S   0  0  0  0  0  0  0  0  0  0  0  0
   12.8930   13.6070    8.9090 C   0  0  0  0  0  0  0  0  0  0  0  0
    9.9070   18.1800    6.9060 C   0  0  0  0  0  0  0  0  0  0  0  0
    4.9340   17.5140    9.2340 N   0  0  0  0  0  0  0  0  0  0  0  0
    5.9580   19.3100    8.1930 O   0  0  0  0  0  0  0  0  0  0  0  0
    8.7610   17.6240    7.7530 C   0  0  0  0  0  0  0  0  0  0  0  0
   11.8390   15.9460    5.9800 N   0  0  0  0  0  0  0  0  0  0  0  0
    8.1910   16.5360    7.4720 O   0  0  0  0  0  0  0  0  0  0  0  0
   14.6240   12.8930    7.3330 C   0  0  0  0  0  0  0  0  0  0  0  0
    7.2980   17.9590    9.7080 C   0  0  1  0  0  0  0  0  0  0  0  0
   10.6550   13.9730    6.1610 O   0  0  0  0  0  0  0  0  0  0  0  0
    7.3820   18.6110   11.1250 C   0  0  0  0  0  0  0  0  0  0  0  0
    6.4890   17.8760   12.1480 C   0  0  0  0  0  0  0  0  0  0  0  0
    7.0840   20.1270   11.1220 C   0  0  0  0  0  0  0  0  0  0  0  0
    5.9880   18.3110    8.9640 C   0  0  0  0  0  0  0  0  0  0  0  0
    3.6440   17.5720    8.5190 C   0  0  0  0  0  0  0  0  0  0  0  0
    3.5430   16.4330    7.4770 C   0  0  0  0  0  0  0  0  0  0  0  0
    4.6080   16.5210    6.3620 C   0  0  0  0  0  0  0  0  0  0  0  0
    4.3050   17.6010    5.2940 C   0  0  0  0  0  0  0  0  0  0  0  0
    5.5290   17.9720    4.4210 C   0  0  0  0  0  0  0  0  0  0  0  0
    6.3030   16.7560    3.8670 C   0  0  0  0  0  0  0  0  0  0  0  0
    7.3250   17.1300    2.7740 C   0  0  0  0  0  0  0  0  0  0  0  0
    8.2940   15.9780    2.4190 C   0  0  0  0  0  0  0  0  0  0  0  0
    9.4830   15.8530    3.3940 C   0  0  0  0  0  0  0  0  0  0  0  0
   10.3090   14.5660    3.1790 C   0  0  0  0  0  0  0  0  0  0  0  0
   11.6300   14.5440    3.9960 C   0  0  0  0  0  0  0  0  0  0  0  0
   11.7050   16.3480    7.3830 C   0  0  1  0  0  0  0  0  0  0  0  0
   11.3540   14.7860    5.4750 C   0  0  0  0  0  0  0  0  0  0  0  0
   13.0190   16.0670    8.1680 C   0  0  0  0  0  0  0  0  0  0  0  0
    8.8140   19.2980    8.9550 H   0  0  0  0  0  0  0  0  0  0  0  0
   11.3470   18.1350    8.5490 H   0  0  0  0  0  0  0  0  0  0  0  0
   12.8910   19.1460    7.4540 H   0  0  0  0  0  0  0  0  0  0  0  0
    9.8120   17.7700    5.8900 H   0  0  0  0  0  0  0  0  0  0  0  0
    5.1210   16.6490    9.7600 H   0  0  0  0  0  0  0  0  0  0  0  0
   12.5900   16.4100    5.4490 H   0  0  0  0  0  0  0  0  0  0  0  0
    7.3370   16.8690    9.8420 H   0  0  0  0  0  0  0  0  0  0  0  0
    8.4240   18.4550   11.4400 H   0  0  0  0  0  0  0  0  0  0  0  0
   12.1140   13.6880    9.6630 H   0  0  0  0  0  0  0  0  0  0  0  0
   12.8700   16.3990    9.2040 H   0  0  0  0  0  0  0  0  0  0  0  0
   13.8280   16.6700    7.7330 H   0  0  0  0  0  0  0  0  0  0  0  0
   15.3470   12.3290    6.7330 H   0  0  0  0  0  0  0  0  0  0  0  0
    6.6780   18.2760   13.1570 H   0  0  0  0  0  0  0  0  0  0  0  0
    7.7090   20.6680   10.4020 H   0  0  0  0  0  0  0  0  0  0  0  0
    3.5560   18.5580    8.0510 H   0  0  0  0  0  0  0  0  0  0  0  0
    2.5230   16.4480    7.0470 H   0  0  0  0  0  0  0  0  0  0  0  0
    4.6910   15.5360    5.8740 H   0  0  0  0  0  0  0  0  0  0  0  0
    3.9350   18.5170    5.7850 H   0  0  0  0  0  0  0  0  0  0  0  0
    6.2210   18.5850    5.0240 H   0  0  0  0  0  0  0  0  0  0  0  0
    5.5940   16.0140    3.4540 H   0  0  0  0  0  0  0  0  0  0  0  0
    7.9120   18.0040    3.1070 H   0  0  0  0  0  0  0  0  0  0  0  0
    8.6850   16.1240    1.3970 H   0  0  0  0  0  0  0  0  0  0  0  0
    9.1160   15.8810    4.4350 H   0  0  0  0  0  0  0  0  0  0  0  0
   10.5700   14.4630    2.1100 H   0  0  0  0  0  0  0  0  0  0  0  0
   12.3140   15.3130    3.6100 H   0  0  0  0  0  0  0  0  0  0  0  0
   10.9000   15.7350    7.8040 H   0  0  0  0  0  0  0  0  0  0  0  0
    9.8210   19.2750    6.8640 H   0  0  0  0  0  0  0  0  0  0  0  0
    6.6920   16.7910   12.1600 H   0  0  0  0  0  0  0  0  0  0  0  0
    7.2650   20.5390   12.1260 H   0  0  0  0  0  0  0  0  0  0  0  0
    2.8340   17.4770    9.2640 H   0  0  0  0  0  0  0  0  0  0  0  0
    3.6390   15.4700    8.0160 H   0  0  0  0  0  0  0  0  0  0  0  0
    5.5910   16.7070    6.8210 H   0  0  0  0  0  0  0  0  0  0  0  0
    3.4820   17.2350    4.6510 H   0  0  0  0  0  0  0  0  0  0  0  0
    5.1910   18.6100    3.5840 H   0  0  0  0  0  0  0  0  0  0  0  0
    6.8190   16.2630    4.7060 H   0  0  0  0  0  0  0  0  0  0  0  0
    6.7730   17.4450    1.8730 H   0  0  0  0  0  0  0  0  0  0  0  0
    7.7250   15.0290    2.3960 H   0  0  0  0  0  0  0  0  0  0  0  0
   10.1380   16.7310    3.2680 H   0  0  0  0  0  0  0  0  0  0  0  0
    9.7010   13.6830    3.4420 H   0  0  0  0  0  0  0  0  0  0  0  0
   12.1270   13.5650    3.8880 H   0  0  0  0  0  0  0  0  0  0  0  0
    6.0290   20.3170   10.8650 H   0  0  0  0  0  0  0  0  0  0  0  0
    5.4160   18.0100   11.9290 H   0  0  0  0  0  0  0  0  0  0  0  0
  1 34  1  0  0  0  0
  1  7  2  0  0  0  0
  2 36  1  1  0  0  0
  2 32  1  0  0  0  0
  3 14  2  0  0  0  0
  3  1  1  0  0  0  0
  4 35  1  0  0  0  0
  4 15  1  0  0  0  0
  5 37  1  0  0  0  0
  5  2  1  0  0  0  0
  6  7  1  0  0  0  0
  7 43  1  0  0  0  0
  8  2  1  0  0  0  0
  8 11  1  0  0  0  0
  9 39  1  0  0  0  0
 10 20  2  0  0  0  0
 11  4  1  0  0  0  0
 12 32  1  0  0  0  0
 13 11  2  0  0  0  0
 14  6  1  0  0  0  0
 15 41  1  1  0  0  0
 15 17  1  0  0  0  0
 17 42  1  0  0  0  0
 17 18  1  0  0  0  0
 18 62  1  0  0  0  0
 18 47  1  0  0  0  0
 19 17  1  0  0  0  0
 19 63  1  0  0  0  0
 20  9  1  0  0  0  0
 20 15  1  0  0  0  0
 21  9  1  0  0  0  0
 21 64  1  0  0  0  0
 22 65  1  0  0  0  0
 22 21  1  0  0  0  0
 23 66  1  0  0  0  0
 23 22  1  0  0  0  0
 24 52  1  0  0  0  0
 24 23  1  0  0  0  0
 25 53  1  0  0  0  0
 25 24  1  0  0  0  0
 26 25  1  0  0  0  0
 26 69  1  0  0  0  0
 27 55  1  0  0  0  0
 27 26  1  0  0  0  0
 28 27  1  0  0  0  0
 28 29  1  0  0  0  0
 29 57  1  0  0  0  0
 30 29  1  0  0  0  0
 30 73  1  0  0  0  0
 30 31  1  0  0  0  0
 31 33  1  0  0  0  0
 32 60  1  1  0  0  0
 32 34  1  0  0  0  0
 33 12  1  0  0  0  0
 33 16  2  0  0  0  0
 34 44  1  0  0  0  0
 38  8  1  0  0  0  0
 40 12  1  0  0  0  0
 45 34  1  0  0  0  0
 46 14  1  0  0  0  0
 48 19  1  0  0  0  0
 49 21  1  0  0  0  0
 50 22  1  0  0  0  0
 51 23  1  0  0  0  0
 54 26  1  0  0  0  0
 56 28  1  0  0  0  0
 58 30  1  0  0  0  0
 59 31  1  0  0  0  0
 61  8  1  0  0  0  0
 67 24  1  0  0  0  0
 68 25  1  0  0  0  0
 70 27  1  0  0  0  0
 71 28  1  0  0  0  0
 72 29  1  0  0  0  0
 74 31  1  0  0  0  0
 75 19  1  0  0  0  0
 76 18  1  0  0  0  0
M  END
>  <IC50_NM>
600

>  <number_of_rotatable_bonds>
3

>  <charge>
0

>  <lm5_entropy_jk>
30.51387600249522

$$$$
