model08
 OpenBabel11252210453D

 74 75  0  0  1  0  0  0  0  0999 V2000
   11.3070   17.8590    7.4810 C   0  0  1  0  0  0  0  0  0  0  0  0
    8.4580   18.4030    8.8240 N   0  0  0  0  0  0  0  0  0  0  0  0
   12.2880   18.6630    6.7660 O   0  0  0  0  0  0  0  0  0  0  0  0
    9.9140   18.1650    6.8690 C   0  0  0  0  0  0  0  0  0  0  0  0
    4.9630   17.5330    9.2040 N   0  0  0  0  0  0  0  0  0  0  0  0
    5.9140   19.3550    8.1310 O   0  0  0  0  0  0  0  0  0  0  0  0
    8.7580   17.6480    7.7270 C   0  0  0  0  0  0  0  0  0  0  0  0
   11.8780   15.9500    6.0100 N   0  0  0  0  0  0  0  0  0  0  0  0
    8.1630   16.5660    7.4780 O   0  0  0  0  0  0  0  0  0  0  0  0
    7.3030   18.0890    9.6730 C   0  0  1  0  0  0  0  0  0  0  0  0
   10.6900   13.9800    6.1770 O   0  0  0  0  0  0  0  0  0  0  0  0
    7.3420   18.9220   10.9730 C   0  0  0  0  0  0  0  0  0  0  0  0
    5.9850   18.3640    8.9100 C   0  0  0  0  0  0  0  0  0  0  0  0
    3.6650   17.5360    8.5010 C   0  0  0  0  0  0  0  0  0  0  0  0
    3.5910   16.3830    7.4730 C   0  0  0  0  0  0  0  0  0  0  0  0
    4.6490   16.4840    6.3520 C   0  0  0  0  0  0  0  0  0  0  0  0
    4.3230   17.5510    5.2790 C   0  0  0  0  0  0  0  0  0  0  0  0
    5.5390   17.9370    4.4010 C   0  0  0  0  0  0  0  0  0  0  0  0
    6.3270   16.7280    3.8520 C   0  0  0  0  0  0  0  0  0  0  0  0
    7.3570   17.1120    2.7700 C   0  0  0  0  0  0  0  0  0  0  0  0
    8.3380   15.9670    2.4200 C   0  0  0  0  0  0  0  0  0  0  0  0
    9.5190   15.8480    3.4060 C   0  0  0  0  0  0  0  0  0  0  0  0
   10.3630   14.5720    3.1900 C   0  0  0  0  0  0  0  0  0  0  0  0
   11.6780   14.5580    4.0170 C   0  0  0  0  0  0  0  0  0  0  0  0
   11.7230   16.3630    7.4090 C   0  0  1  0  0  0  0  0  0  0  0  0
   11.3940   14.7920    5.4970 C   0  0  0  0  0  0  0  0  0  0  0  0
   13.0290   16.1100    8.2150 C   0  0  0  0  0  0  0  0  0  0  0  0
   13.4950   14.6650    8.1550 C   0  0  0  0  0  0  0  0  0  0  0  0
   12.8180   13.6640    8.8880 C   0  0  0  0  0  0  0  0  0  0  0  0
   13.2180   12.3200    8.8190 C   0  0  0  0  0  0  0  0  0  0  0  0
   14.3130   11.9500    8.0160 C   0  0  0  0  0  0  0  0  0  0  0  0
   15.0020   12.9390    7.2900 C   0  0  0  0  0  0  0  0  0  0  0  0
   14.5890   14.2850    7.3500 C   0  0  0  0  0  0  0  0  0  0  0  0
   15.1040   15.0480    6.7610 H   0  0  0  0  0  0  0  0  0  0  0  0
    8.8460   19.3580    8.8880 H   0  0  0  0  0  0  0  0  0  0  0  0
   11.3310   18.1670    8.5370 H   0  0  0  0  0  0  0  0  0  0  0  0
   12.9010   19.1510    7.4400 H   0  0  0  0  0  0  0  0  0  0  0  0
    9.8310   17.7130    5.8700 H   0  0  0  0  0  0  0  0  0  0  0  0
    5.1880   16.6850    9.7470 H   0  0  0  0  0  0  0  0  0  0  0  0
   12.6080   16.4330    5.4730 H   0  0  0  0  0  0  0  0  0  0  0  0
    7.3430   17.0210    9.9350 H   0  0  0  0  0  0  0  0  0  0  0  0
    8.2140   18.6440   11.5780 H   0  0  0  0  0  0  0  0  0  0  0  0
    6.4380   18.7260   11.5710 H   0  0  0  0  0  0  0  0  0  0  0  0
    7.3870   19.9970   10.7520 H   0  0  0  0  0  0  0  0  0  0  0  0
    3.5390   18.5130    8.0210 H   0  0  0  0  0  0  0  0  0  0  0  0
    2.5690   16.3660    7.0480 H   0  0  0  0  0  0  0  0  0  0  0  0
    4.7460   15.4980    5.8700 H   0  0  0  0  0  0  0  0  0  0  0  0
    3.9400   18.4640    5.7640 H   0  0  0  0  0  0  0  0  0  0  0  0
    6.2240   18.5620    5.0000 H   0  0  0  0  0  0  0  0  0  0  0  0
    5.6270   15.9820    3.4310 H   0  0  0  0  0  0  0  0  0  0  0  0
    7.9350   17.9890    3.1110 H   0  0  0  0  0  0  0  0  0  0  0  0
    8.7370   16.1210    1.4030 H   0  0  0  0  0  0  0  0  0  0  0  0
    9.1420   15.8620    4.4430 H   0  0  0  0  0  0  0  0  0  0  0  0
   10.6360   14.4820    2.1220 H   0  0  0  0  0  0  0  0  0  0  0  0
   12.3580   15.3340    3.6380 H   0  0  0  0  0  0  0  0  0  0  0  0
   10.9170   15.7470    7.8260 H   0  0  0  0  0  0  0  0  0  0  0  0
   12.8380   16.4210    9.2520 H   0  0  0  0  0  0  0  0  0  0  0  0
   11.9780   13.9450    9.5230 H   0  0  0  0  0  0  0  0  0  0  0  0
   12.6540   11.5580    9.3660 H   0  0  0  0  0  0  0  0  0  0  0  0
   14.6130   10.9000    7.9460 H   0  0  0  0  0  0  0  0  0  0  0  0
   15.8590   12.6600    6.6650 H   0  0  0  0  0  0  0  0  0  0  0  0
   13.8120   16.7700    7.8160 H   0  0  0  0  0  0  0  0  0  0  0  0
    9.8260   19.2580    6.7790 H   0  0  0  0  0  0  0  0  0  0  0  0
    2.8630   17.4230    9.2540 H   0  0  0  0  0  0  0  0  0  0  0  0
    3.7130   15.4280    8.0210 H   0  0  0  0  0  0  0  0  0  0  0  0
    5.6300   16.6900    6.8050 H   0  0  0  0  0  0  0  0  0  0  0  0
    3.5050   17.1680    4.6400 H   0  0  0  0  0  0  0  0  0  0  0  0
    5.1900   18.5670    3.5620 H   0  0  0  0  0  0  0  0  0  0  0  0
    6.8380   16.2380    4.6960 H   0  0  0  0  0  0  0  0  0  0  0  0
    6.8120   17.4250    1.8650 H   0  0  0  0  0  0  0  0  0  0  0  0
    7.7770   15.0140    2.3870 H   0  0  0  0  0  0  0  0  0  0  0  0
   10.1650   16.7340    3.2940 H   0  0  0  0  0  0  0  0  0  0  0  0
    9.7650   13.6780    3.4390 H   0  0  0  0  0  0  0  0  0  0  0  0
   12.1820   13.5840    3.9070 H   0  0  0  0  0  0  0  0  0  0  0  0
  1 36  1  1  0  0  0
  1 25  1  0  0  0  0
  2 35  1  0  0  0  0
  2 10  1  0  0  0  0
  3 37  1  0  0  0  0
  3  1  1  0  0  0  0
  4  1  1  0  0  0  0
  4  7  1  0  0  0  0
  5 39  1  0  0  0  0
  6 13  2  0  0  0  0
  7  2  1  0  0  0  0
  8 25  1  0  0  0  0
  9  7  2  0  0  0  0
 10 41  1  1  0  0  0
 10 12  1  0  0  0  0
 12 43  1  0  0  0  0
 12 42  1  0  0  0  0
 13  5  1  0  0  0  0
 13 10  1  0  0  0  0
 14  5  1  0  0  0  0
 14 64  1  0  0  0  0
 15 65  1  0  0  0  0
 15 14  1  0  0  0  0
 16 66  1  0  0  0  0
 16 15  1  0  0  0  0
 17 48  1  0  0  0  0
 17 16  1  0  0  0  0
 18 49  1  0  0  0  0
 18 17  1  0  0  0  0
 19 18  1  0  0  0  0
 19 69  1  0  0  0  0
 20 51  1  0  0  0  0
 20 19  1  0  0  0  0
 21 20  1  0  0  0  0
 21 22  1  0  0  0  0
 22 53  1  0  0  0  0
 23 22  1  0  0  0  0
 23 73  1  0  0  0  0
 23 24  1  0  0  0  0
 24 26  1  0  0  0  0
 25 56  1  1  0  0  0
 25 27  1  0  0  0  0
 26  8  1  0  0  0  0
 26 11  2  0  0  0  0
 27 57  1  0  0  0  0
 28 27  1  0  0  0  0
 28 29  2  0  0  0  0
 29 58  1  0  0  0  0
 30 29  1  0  0  0  0
 30 59  1  0  0  0  0
 31 30  2  0  0  0  0
 32 33  2  0  0  0  0
 32 31  1  0  0  0  0
 33 28  1  0  0  0  0
 34 33  1  0  0  0  0
 38  4  1  0  0  0  0
 40  8  1  0  0  0  0
 44 12  1  0  0  0  0
 45 14  1  0  0  0  0
 46 15  1  0  0  0  0
 47 16  1  0  0  0  0
 50 19  1  0  0  0  0
 52 21  1  0  0  0  0
 54 23  1  0  0  0  0
 55 24  1  0  0  0  0
 60 31  1  0  0  0  0
 61 32  1  0  0  0  0
 62 27  1  0  0  0  0
 63  4  1  0  0  0  0
 67 17  1  0  0  0  0
 68 18  1  0  0  0  0
 70 20  1  0  0  0  0
 71 21  1  0  0  0  0
 72 22  1  0  0  0  0
 74 24  1  0  0  0  0
M  END
>  <IC50_NM>
68.4

>  <number_of_rotatable_bonds>
2

>  <charge>
0

>  <lm5_entropy_jk>
22.370975242635136

$$$$
