model31
 OpenBabel11252210453D

 78 79  0  0  1  0  0  0  0  0999 V2000
   11.2970   17.9490    7.6420 C   0  0  2  0  0  0  0  0  0  0  0  0
    8.4100   18.4080    9.1880 N   0  0  0  0  0  0  0  0  0  0  0  0
    7.5420   19.8590   11.4540 O   0  0  0  0  0  0  0  0  0  0  0  0
    9.8650   18.3230    7.1750 C   0  0  0  0  0  0  0  0  0  0  0  0
    4.8460   17.6500    9.3060 N   0  0  0  0  0  0  0  0  0  0  0  0
   12.2310   18.7560    6.8670 O   0  0  0  0  0  0  0  0  0  0  0  0
    8.7480   17.7360    8.0380 C   0  0  0  0  0  0  0  0  0  0  0  0
   11.8150   16.0910    6.0750 N   0  0  0  0  0  0  0  0  0  0  0  0
    5.9760   19.3970    8.2840 O   0  0  0  0  0  0  0  0  0  0  0  0
    7.1890   18.0020    9.8900 C   0  0  1  0  0  0  0  0  0  0  0  0
    8.1930   16.6500    7.7200 O   0  0  0  0  0  0  0  0  0  0  0  0
    7.0830   18.4900   11.3690 C   0  0  1  0  0  0  0  0  0  0  0  0
   10.7110   14.0730    6.2370 O   0  0  0  0  0  0  0  0  0  0  0  0
    7.8240   17.5660   12.3480 C   0  0  0  0  0  0  0  0  0  0  0  0
    5.9380   18.4130    9.0700 C   0  0  0  0  0  0  0  0  0  0  0  0
    3.6040   17.6960    8.5070 C   0  0  0  0  0  0  0  0  0  0  0  0
    3.5660   16.5350    7.4850 C   0  0  0  0  0  0  0  0  0  0  0  0
    4.6580   16.6270    6.3960 C   0  0  0  0  0  0  0  0  0  0  0  0
    4.3380   17.6600    5.2900 C   0  0  0  0  0  0  0  0  0  0  0  0
    5.5470   18.0080    4.3880 C   0  0  0  0  0  0  0  0  0  0  0  0
    6.3150   16.7790    3.8550 C   0  0  0  0  0  0  0  0  0  0  0  0
    7.3300   17.1300    2.7480 C   0  0  0  0  0  0  0  0  0  0  0  0
    8.3200   15.9840    2.4310 C   0  0  0  0  0  0  0  0  0  0  0  0
    9.5080   15.9210    3.4150 C   0  0  0  0  0  0  0  0  0  0  0  0
   10.3700   14.6510    3.2460 C   0  0  0  0  0  0  0  0  0  0  0  0
   11.6780   14.6900    4.0800 C   0  0  0  0  0  0  0  0  0  0  0  0
   11.6980   16.4530    7.4930 C   0  0  1  0  0  0  0  0  0  0  0  0
   11.3790   14.9160    5.5590 C   0  0  0  0  0  0  0  0  0  0  0  0
   13.0330   16.1690    8.2450 C   0  0  0  0  0  0  0  0  0  0  0  0
   13.5090   14.7280    8.1400 C   0  0  0  0  0  0  0  0  0  0  0  0
   12.8630   13.7040    8.8700 C   0  0  0  0  0  0  0  0  0  0  0  0
   13.2850   12.3690    8.7760 C   0  0  0  0  0  0  0  0  0  0  0  0
   14.3740   12.0280    7.9500 C   0  0  0  0  0  0  0  0  0  0  0  0
   15.0340   13.0400    7.2300 C   0  0  0  0  0  0  0  0  0  0  0  0
   14.5970   14.3780    7.3150 C   0  0  0  0  0  0  0  0  0  0  0  0
   15.0920   15.1580    6.7310 H   0  0  0  0  0  0  0  0  0  0  0  0
    8.7110   19.3920    9.2890 H   0  0  0  0  0  0  0  0  0  0  0  0
   11.4240   18.2240    8.6990 H   0  0  0  0  0  0  0  0  0  0  0  0
   12.8780   19.2410    7.5120 H   0  0  0  0  0  0  0  0  0  0  0  0
    9.7050   17.9650    6.1470 H   0  0  0  0  0  0  0  0  0  0  0  0
    5.0070   16.7820    9.8370 H   0  0  0  0  0  0  0  0  0  0  0  0
   12.5270   16.5980    5.5380 H   0  0  0  0  0  0  0  0  0  0  0  0
    7.1820   16.9050    9.9370 H   0  0  0  0  0  0  0  0  0  0  0  0
    6.0050   18.4510   11.6230 H   0  0  0  0  0  0  0  0  0  0  0  0
    7.6680   20.0600   12.4140 H   0  0  0  0  0  0  0  0  0  0  0  0
    7.4150   16.5440   12.2720 H   0  0  0  0  0  0  0  0  0  0  0  0
    3.5470   18.6730    8.0150 H   0  0  0  0  0  0  0  0  0  0  0  0
    2.5600   16.5140    7.0250 H   0  0  0  0  0  0  0  0  0  0  0  0
    4.7850   15.6300    5.9420 H   0  0  0  0  0  0  0  0  0  0  0  0
    3.9630   18.5910    5.7480 H   0  0  0  0  0  0  0  0  0  0  0  0
    6.2480   18.6390    4.9620 H   0  0  0  0  0  0  0  0  0  0  0  0
    5.6030   16.0270    3.4650 H   0  0  0  0  0  0  0  0  0  0  0  0
    7.9030   18.0230    3.0500 H   0  0  0  0  0  0  0  0  0  0  0  0
    8.7120   16.1070    1.4060 H   0  0  0  0  0  0  0  0  0  0  0  0
    9.1370   15.9740    4.4540 H   0  0  0  0  0  0  0  0  0  0  0  0
   10.6500   14.5290    2.1830 H   0  0  0  0  0  0  0  0  0  0  0  0
   12.3320   15.4870    3.7010 H   0  0  0  0  0  0  0  0  0  0  0  0
   10.9060   15.8190    7.9050 H   0  0  0  0  0  0  0  0  0  0  0  0
   12.8810   16.4530    9.2960 H   0  0  0  0  0  0  0  0  0  0  0  0
   12.0320   13.9600    9.5260 H   0  0  0  0  0  0  0  0  0  0  0  0
   12.7450   11.5900    9.3230 H   0  0  0  0  0  0  0  0  0  0  0  0
   14.6890   10.9840    7.8580 H   0  0  0  0  0  0  0  0  0  0  0  0
   15.8880   12.7870    6.5910 H   0  0  0  0  0  0  0  0  0  0  0  0
   13.8000   16.8430    7.8390 H   0  0  0  0  0  0  0  0  0  0  0  0
    9.7960   19.4200    7.1980 H   0  0  0  0  0  0  0  0  0  0  0  0
    7.6660   17.9210   13.3820 H   0  0  0  0  0  0  0  0  0  0  0  0
    2.7460   17.6180    9.2000 H   0  0  0  0  0  0  0  0  0  0  0  0
    3.6670   15.5850    8.0470 H   0  0  0  0  0  0  0  0  0  0  0  0
    5.6240   16.8620    6.8710 H   0  0  0  0  0  0  0  0  0  0  0  0
    3.5120   17.2610    4.6700 H   0  0  0  0  0  0  0  0  0  0  0  0
    5.1940   18.6220    3.5400 H   0  0  0  0  0  0  0  0  0  0  0  0
    6.8380   16.3060    4.7020 H   0  0  0  0  0  0  0  0  0  0  0  0
    6.7730   17.4060    1.8370 H   0  0  0  0  0  0  0  0  0  0  0  0
    7.7720   15.0240    2.4360 H   0  0  0  0  0  0  0  0  0  0  0  0
   10.1410   16.8110    3.2640 H   0  0  0  0  0  0  0  0  0  0  0  0
    9.7860   13.7560    3.5200 H   0  0  0  0  0  0  0  0  0  0  0  0
   12.2190   13.7340    3.9810 H   0  0  0  0  0  0  0  0  0  0  0  0
    8.8980   17.5260   12.1470 H   0  0  0  0  0  0  0  0  0  0  0  0
  1 38  1  1  0  0  0
  1 27  1  0  0  0  0
  2 37  1  0  0  0  0
  2 10  1  0  0  0  0
  3 45  1  0  0  0  0
  4 65  1  0  0  0  0
  4  1  1  0  0  0  0
  4  7  1  0  0  0  0
  5 41  1  0  0  0  0
  6 39  1  0  0  0  0
  6  1  1  0  0  0  0
  7  2  1  0  0  0  0
  8 27  1  0  0  0  0
  9 15  2  0  0  0  0
 10 43  1  1  0  0  0
 10 12  1  0  0  0  0
 11  7  2  0  0  0  0
 12  3  1  0  0  0  0
 12 44  1  1  0  0  0
 12 14  1  0  0  0  0
 14 66  1  0  0  0  0
 15  5  1  0  0  0  0
 15 10  1  0  0  0  0
 16 67  1  0  0  0  0
 16  5  1  0  0  0  0
 17 68  1  0  0  0  0
 17 16  1  0  0  0  0
 18 69  1  0  0  0  0
 18 17  1  0  0  0  0
 19 50  1  0  0  0  0
 19 18  1  0  0  0  0
 20 51  1  0  0  0  0
 20 19  1  0  0  0  0
 21 20  1  0  0  0  0
 21 72  1  0  0  0  0
 22 53  1  0  0  0  0
 22 21  1  0  0  0  0
 23 74  1  0  0  0  0
 23 22  1  0  0  0  0
 23 24  1  0  0  0  0
 24 55  1  0  0  0  0
 25 24  1  0  0  0  0
 25 76  1  0  0  0  0
 25 26  1  0  0  0  0
 26 28  1  0  0  0  0
 27 58  1  1  0  0  0
 27 29  1  0  0  0  0
 28  8  1  0  0  0  0
 28 13  2  0  0  0  0
 29 59  1  0  0  0  0
 30 29  1  0  0  0  0
 30 31  2  0  0  0  0
 31 60  1  0  0  0  0
 32 31  1  0  0  0  0
 32 61  1  0  0  0  0
 33 32  2  0  0  0  0
 34 35  2  0  0  0  0
 34 33  1  0  0  0  0
 35 30  1  0  0  0  0
 36 35  1  0  0  0  0
 40  4  1  0  0  0  0
 42  8  1  0  0  0  0
 46 14  1  0  0  0  0
 47 16  1  0  0  0  0
 48 17  1  0  0  0  0
 49 18  1  0  0  0  0
 52 21  1  0  0  0  0
 54 23  1  0  0  0  0
 56 25  1  0  0  0  0
 57 26  1  0  0  0  0
 62 33  1  0  0  0  0
 63 34  1  0  0  0  0
 64 29  1  0  0  0  0
 70 19  1  0  0  0  0
 71 20  1  0  0  0  0
 73 22  1  0  0  0  0
 75 24  1  0  0  0  0
 77 26  1  0  0  0  0
 78 14  1  0  0  0  0
M  END
>  <IC50_NM>
496

>  <number_of_rotatable_bonds>
3

>  <charge>
0

>  <lm5_entropy_jk>
23.111899726860837

$$$$
