model25
 OpenBabel11252210453D

 83 85  0  0  1  0  0  0  0  0999 V2000
    6.2850   18.4190   11.9510 C   0  0  0  0  0  0  0  0  0  0  0  0
   11.3160   17.8400    7.4790 C   0  0  1  0  0  0  0  0  0  0  0  0
    5.3000   16.6360   13.3020 N   0  0  0  0  0  0  0  0  0  0  0  0
    8.4510   18.3980    8.8020 N   0  0  0  0  0  0  0  0  0  0  0  0
   12.3060   18.6370    6.7690 O   0  0  0  0  0  0  0  0  0  0  0  0
    5.2040   19.2600   12.2780 C   0  0  0  0  0  0  0  0  0  0  0  0
    9.9280   18.1550    6.8620 C   0  0  0  0  0  0  0  0  0  0  0  0
    4.9550   17.5570    9.1360 N   0  0  0  0  0  0  0  0  0  0  0  0
    5.9240   19.4390    8.1940 O   0  0  0  0  0  0  0  0  0  0  0  0
    4.1740   18.7720   13.0980 C   0  0  0  0  0  0  0  0  0  0  0  0
    8.7670   17.6370    7.7130 C   0  0  0  0  0  0  0  0  0  0  0  0
   11.8740   15.9220    6.0130 N   0  0  0  0  0  0  0  0  0  0  0  0
    8.1870   16.5470    7.4700 O   0  0  0  0  0  0  0  0  0  0  0  0
    4.2550   17.4510   13.5760 C   0  0  0  0  0  0  0  0  0  0  0  0
    7.2990   18.0660    9.6450 C   0  0  1  0  0  0  0  0  0  0  0  0
   10.6810   13.9540    6.1930 O   0  0  0  0  0  0  0  0  0  0  0  0
    7.3920   18.8310   10.9990 C   0  0  0  0  0  0  0  0  0  0  0  0
    6.2830   17.1250   12.5080 C   0  0  0  0  0  0  0  0  0  0  0  0
    5.9770   18.4030    8.9120 C   0  0  0  0  0  0  0  0  0  0  0  0
    3.6510   17.6220    8.4530 C   0  0  0  0  0  0  0  0  0  0  0  0
    3.5210   16.4700    7.4270 C   0  0  0  0  0  0  0  0  0  0  0  0
    4.5840   16.5210    6.3080 C   0  0  0  0  0  0  0  0  0  0  0  0
    4.3040   17.5960    5.2300 C   0  0  0  0  0  0  0  0  0  0  0  0
    5.5410   17.9490    4.3670 C   0  0  0  0  0  0  0  0  0  0  0  0
    6.3100   16.7220    3.8310 C   0  0  0  0  0  0  0  0  0  0  0  0
    7.3570   17.0830    2.7570 C   0  0  0  0  0  0  0  0  0  0  0  0
    8.3230   15.9210    2.4210 C   0  0  0  0  0  0  0  0  0  0  0  0
    9.5040   15.8030    3.4080 C   0  0  0  0  0  0  0  0  0  0  0  0
   10.3390   14.5200    3.2100 C   0  0  0  0  0  0  0  0  0  0  0  0
   11.6600   14.5200    4.0270 C   0  0  0  0  0  0  0  0  0  0  0  0
   11.7260   16.3410    7.4110 C   0  0  1  0  0  0  0  0  0  0  0  0
   11.3830   14.7630    5.5070 C   0  0  0  0  0  0  0  0  0  0  0  0
   13.0350   16.0910    8.2130 C   0  0  0  0  0  0  0  0  0  0  0  0
   13.5100   14.6490    8.1580 C   0  0  0  0  0  0  0  0  0  0  0  0
   12.8270   13.6420    8.8760 C   0  0  0  0  0  0  0  0  0  0  0  0
   13.2370   12.3000    8.8120 C   0  0  0  0  0  0  0  0  0  0  0  0
   14.3540   11.9410    8.0340 C   0  0  0  0  0  0  0  0  0  0  0  0
   15.0520   12.9370    7.3280 C   0  0  0  0  0  0  0  0  0  0  0  0
   14.6260   14.2800    7.3790 C   0  0  0  0  0  0  0  0  0  0  0  0
   15.1500   15.0480    6.8040 H   0  0  0  0  0  0  0  0  0  0  0  0
    8.8260   19.3590    8.8630 H   0  0  0  0  0  0  0  0  0  0  0  0
   11.3370   18.1490    8.5350 H   0  0  0  0  0  0  0  0  0  0  0  0
   12.9160   19.1240    7.4480 H   0  0  0  0  0  0  0  0  0  0  0  0
    9.8470   17.7050    5.8620 H   0  0  0  0  0  0  0  0  0  0  0  0
    5.1480   16.6940    9.6640 H   0  0  0  0  0  0  0  0  0  0  0  0
   12.5980   16.4060    5.4680 H   0  0  0  0  0  0  0  0  0  0  0  0
    7.3250   16.9870    9.8500 H   0  0  0  0  0  0  0  0  0  0  0  0
    7.3550   19.9130   10.8100 H   0  0  0  0  0  0  0  0  0  0  0  0
    8.3670   18.6000   11.4450 H   0  0  0  0  0  0  0  0  0  0  0  0
    5.1620   20.2790   11.8890 H   0  0  0  0  0  0  0  0  0  0  0  0
    3.3180   19.3990   13.3640 H   0  0  0  0  0  0  0  0  0  0  0  0
    3.4530   17.0270   14.2000 H   0  0  0  0  0  0  0  0  0  0  0  0
    7.1070   16.4390   12.2880 H   0  0  0  0  0  0  0  0  0  0  0  0
    3.5630   18.6040    7.9750 H   0  0  0  0  0  0  0  0  0  0  0  0
    2.5000   16.5000    7.0010 H   0  0  0  0  0  0  0  0  0  0  0  0
    4.6460   15.5290    5.8320 H   0  0  0  0  0  0  0  0  0  0  0  0
    3.9390   18.5200    5.7090 H   0  0  0  0  0  0  0  0  0  0  0  0
    6.2310   18.5620    4.9720 H   0  0  0  0  0  0  0  0  0  0  0  0
    5.6010   15.9880    3.4070 H   0  0  0  0  0  0  0  0  0  0  0  0
    7.9470   17.9510    3.0990 H   0  0  0  0  0  0  0  0  0  0  0  0
    8.7250   16.0570    1.4010 H   0  0  0  0  0  0  0  0  0  0  0  0
    9.1260   15.8330    4.4450 H   0  0  0  0  0  0  0  0  0  0  0  0
   10.6020   14.4060    2.1410 H   0  0  0  0  0  0  0  0  0  0  0  0
   12.3340   15.2960    3.6360 H   0  0  0  0  0  0  0  0  0  0  0  0
   10.9190   15.7300    7.8330 H   0  0  0  0  0  0  0  0  0  0  0  0
   12.8470   16.4070    9.2490 H   0  0  0  0  0  0  0  0  0  0  0  0
   11.9740   13.9150    9.4960 H   0  0  0  0  0  0  0  0  0  0  0  0
   12.6680   11.5340    9.3460 H   0  0  0  0  0  0  0  0  0  0  0  0
   14.6640   10.8930    7.9710 H   0  0  0  0  0  0  0  0  0  0  0  0
   15.9300   12.6680    6.7280 H   0  0  0  0  0  0  0  0  0  0  0  0
   13.8130   16.7540    7.8090 H   0  0  0  0  0  0  0  0  0  0  0  0
    9.8440   19.2480    6.7730 H   0  0  0  0  0  0  0  0  0  0  0  0
    2.8550   17.5440    9.2150 H   0  0  0  0  0  0  0  0  0  0  0  0
    3.6000   15.5140    7.9790 H   0  0  0  0  0  0  0  0  0  0  0  0
    5.5720   16.6910    6.7660 H   0  0  0  0  0  0  0  0  0  0  0  0
    3.4840   17.2350    4.5800 H   0  0  0  0  0  0  0  0  0  0  0  0
    5.2180   18.5840    3.5220 H   0  0  0  0  0  0  0  0  0  0  0  0
    6.8040   16.2250    4.6810 H   0  0  0  0  0  0  0  0  0  0  0  0
    6.8260   17.4020    1.8460 H   0  0  0  0  0  0  0  0  0  0  0  0
    7.7520   14.9740    2.4010 H   0  0  0  0  0  0  0  0  0  0  0  0
   10.1560   16.6840    3.2870 H   0  0  0  0  0  0  0  0  0  0  0  0
    9.7410   13.6340    3.4820 H   0  0  0  0  0  0  0  0  0  0  0  0
   12.1690   13.5480    3.9230 H   0  0  0  0  0  0  0  0  0  0  0  0
  1  6  2  0  0  0  0
  1 18  1  0  0  0  0
  2 42  1  1  0  0  0
  2 31  1  0  0  0  0
  3 14  1  0  0  0  0
  4 41  1  0  0  0  0
  4 15  1  0  0  0  0
  5 43  1  0  0  0  0
  5  2  1  0  0  0  0
  6 10  1  0  0  0  0
  7  2  1  0  0  0  0
  7 11  1  0  0  0  0
  8 45  1  0  0  0  0
  9 19  2  0  0  0  0
 10 51  1  0  0  0  0
 10 14  2  0  0  0  0
 11  4  1  0  0  0  0
 12 31  1  0  0  0  0
 13 11  2  0  0  0  0
 14 52  1  0  0  0  0
 15 47  1  1  0  0  0
 15 17  1  0  0  0  0
 17 49  1  0  0  0  0
 17  1  1  0  0  0  0
 18  3  2  0  0  0  0
 19  8  1  0  0  0  0
 19 15  1  0  0  0  0
 20  8  1  0  0  0  0
 20 73  1  0  0  0  0
 21 74  1  0  0  0  0
 21 20  1  0  0  0  0
 22 75  1  0  0  0  0
 22 21  1  0  0  0  0
 23 57  1  0  0  0  0
 23 22  1  0  0  0  0
 24 58  1  0  0  0  0
 24 23  1  0  0  0  0
 25 24  1  0  0  0  0
 25 78  1  0  0  0  0
 26 60  1  0  0  0  0
 26 25  1  0  0  0  0
 27 26  1  0  0  0  0
 27 28  1  0  0  0  0
 28 62  1  0  0  0  0
 29 28  1  0  0  0  0
 29 82  1  0  0  0  0
 29 30  1  0  0  0  0
 30 32  1  0  0  0  0
 31 65  1  1  0  0  0
 31 33  1  0  0  0  0
 32 12  1  0  0  0  0
 32 16  2  0  0  0  0
 33 66  1  0  0  0  0
 34 33  1  0  0  0  0
 34 35  2  0  0  0  0
 35 67  1  0  0  0  0
 36 35  1  0  0  0  0
 36 68  1  0  0  0  0
 37 36  2  0  0  0  0
 38 39  2  0  0  0  0
 38 37  1  0  0  0  0
 39 34  1  0  0  0  0
 40 39  1  0  0  0  0
 44  7  1  0  0  0  0
 46 12  1  0  0  0  0
 48 17  1  0  0  0  0
 50  6  1  0  0  0  0
 53 18  1  0  0  0  0
 54 20  1  0  0  0  0
 55 21  1  0  0  0  0
 56 22  1  0  0  0  0
 59 25  1  0  0  0  0
 61 27  1  0  0  0  0
 63 29  1  0  0  0  0
 64 30  1  0  0  0  0
 69 37  1  0  0  0  0
 70 38  1  0  0  0  0
 71 33  1  0  0  0  0
 72  7  1  0  0  0  0
 76 23  1  0  0  0  0
 77 24  1  0  0  0  0
 79 26  1  0  0  0  0
 80 27  1  0  0  0  0
 81 28  1  0  0  0  0
 83 30  1  0  0  0  0
M  END
>  <IC50_NM>
1.1

>  <number_of_rotatable_bonds>
4

>  <charge>
0

>  <lm5_entropy_jk>
18.43900937288166

$$$$
