model35
 OpenBabel11252210453D

 75 76  0  0  1  0  0  0  0  0999 V2000
    8.2800   18.5910    8.6390 N   0  0  0  0  0  0  0  0  0  0  0  0
   11.2360   17.9080    7.4500 C   0  0  1  0  0  0  0  0  0  0  0  0
   12.1790   18.7300    6.7520 O   0  0  0  0  0  0  0  0  0  0  0  0
    9.8990   18.2810    6.7800 C   0  0  0  0  0  0  0  0  0  0  0  0
    4.7800   17.5640    9.1760 N   0  0  0  0  0  0  0  0  0  0  0  0
   11.5490   15.1260    3.8420 O   0  0  0  0  0  0  0  0  0  0  0  0
    8.6960   17.8140    7.5630 C   0  0  0  0  0  0  0  0  0  0  0  0
   11.8980   16.1300    5.8290 N   0  0  0  0  0  0  0  0  0  0  0  0
    5.6100   19.4160    8.1460 O   0  0  0  0  0  0  0  0  0  0  0  0
    7.1740   18.1280    9.5080 C   0  0  1  0  0  0  0  0  0  0  0  0
    8.1320   16.7520    7.3110 O   0  0  0  0  0  0  0  0  0  0  0  0
    7.2840   18.7490   10.9320 C   0  0  0  0  0  0  0  0  0  0  0  0
    9.9420   14.9060    5.4690 O   0  0  0  0  0  0  0  0  0  0  0  0
    6.5420   17.8820   11.9550 C   0  0  0  0  0  0  0  0  0  0  0  0
    6.7880   20.1950   10.9700 C   0  0  0  0  0  0  0  0  0  0  0  0
    5.8120   18.4310    8.8550 C   0  0  0  0  0  0  0  0  0  0  0  0
    3.5270   17.5690    8.3860 C   0  0  0  0  0  0  0  0  0  0  0  0
    3.5350   16.4740    7.3020 C   0  0  0  0  0  0  0  0  0  0  0  0
    4.7140   16.5020    6.4800 O   0  0  0  0  0  0  0  0  0  0  0  0
    4.9310   17.7040    5.6990 C   0  0  0  0  0  0  0  0  0  0  0  0
    5.3640   17.2160    4.3130 C   0  0  0  0  0  0  0  0  0  0  0  0
    6.4730   18.0370    3.8870 O   0  0  0  0  0  0  0  0  0  0  0  0
    7.7940   17.4890    4.0640 C   0  0  0  0  0  0  0  0  0  0  0  0
    8.1310   16.6770    2.8080 C   0  0  0  0  0  0  0  0  0  0  0  0
    9.5620   16.8390    2.6500 O   0  0  0  0  0  0  0  0  0  0  0  0
   10.2260   15.7870    1.9270 C   0  0  0  0  0  0  0  0  0  0  0  0
   10.6090   14.6230    2.8400 C   0  0  0  0  0  0  0  0  0  0  0  0
   11.6550   16.4100    7.2660 C   0  0  1  0  0  0  0  0  0  0  0  0
   11.0280   15.3440    5.1100 C   0  0  0  0  0  0  0  0  0  0  0  0
   12.9300   16.1270    8.0880 C   0  0  0  0  0  0  0  0  0  0  0  0
   13.4710   14.7280    7.9640 C   0  0  0  0  0  0  0  0  0  0  0  0
   12.7540   13.6420    8.4900 C   0  0  0  0  0  0  0  0  0  0  0  0
   13.2880   12.3530    8.4510 C   0  0  0  0  0  0  0  0  0  0  0  0
   14.5250   12.1220    7.8440 C   0  0  0  0  0  0  0  0  0  0  0  0
   15.2470   13.1980    7.3210 C   0  0  0  0  0  0  0  0  0  0  0  0
   14.7340   14.4960    7.3970 C   0  0  0  0  0  0  0  0  0  0  0  0
   15.3340   15.3270    7.0290 H   0  0  0  0  0  0  0  0  0  0  0  0
    8.6100   19.5580    8.7660 H   0  0  0  0  0  0  0  0  0  0  0  0
   11.2160   18.1690    8.5320 H   0  0  0  0  0  0  0  0  0  0  0  0
   12.8950   19.0990    7.4000 H   0  0  0  0  0  0  0  0  0  0  0  0
    9.8640   17.7920    5.7700 H   0  0  0  0  0  0  0  0  0  0  0  0
    4.9770   16.6710    9.6510 H   0  0  0  0  0  0  0  0  0  0  0  0
   12.8240   16.3730    5.4490 H   0  0  0  0  0  0  0  0  0  0  0  0
    7.2800   17.0120    9.6010 H   0  0  0  0  0  0  0  0  0  0  0  0
    8.3680   18.7270   11.2000 H   0  0  0  0  0  0  0  0  0  0  0  0
    6.8930   16.8270   11.9060 H   0  0  0  0  0  0  0  0  0  0  0  0
    7.2750   20.7850   10.1650 H   0  0  0  0  0  0  0  0  0  0  0  0
    3.3980   18.5830    7.9190 H   0  0  0  0  0  0  0  0  0  0  0  0
    2.6320   16.5630    6.6570 H   0  0  0  0  0  0  0  0  0  0  0  0
    5.7670   18.2370    6.2120 H   0  0  0  0  0  0  0  0  0  0  0  0
    4.6010   17.4290    3.5310 H   0  0  0  0  0  0  0  0  0  0  0  0
    7.8570   16.8850    4.9990 H   0  0  0  0  0  0  0  0  0  0  0  0
    7.6590   17.1370    1.9090 H   0  0  0  0  0  0  0  0  0  0  0  0
   11.1300   16.3240    1.5630 H   0  0  0  0  0  0  0  0  0  0  0  0
   11.2290   13.8690    2.2990 H   0  0  0  0  0  0  0  0  0  0  0  0
   10.8070   15.7590    7.6140 H   0  0  0  0  0  0  0  0  0  0  0  0
   12.6940   16.3090    9.1710 H   0  0  0  0  0  0  0  0  0  0  0  0
   11.7870   13.8050    8.9460 H   0  0  0  0  0  0  0  0  0  0  0  0
   12.7460   11.5280    8.9120 H   0  0  0  0  0  0  0  0  0  0  0  0
   14.9190   11.1090    7.7830 H   0  0  0  0  0  0  0  0  0  0  0  0
   16.2210   13.0270    6.8600 H   0  0  0  0  0  0  0  0  0  0  0  0
   13.7210   16.8630    7.7920 H   0  0  0  0  0  0  0  0  0  0  0  0
    9.8820   19.3910    6.6250 H   0  0  0  0  0  0  0  0  0  0  0  0
    5.4430   17.9090   11.7790 H   0  0  0  0  0  0  0  0  0  0  0  0
    7.0270   20.6520   11.9570 H   0  0  0  0  0  0  0  0  0  0  0  0
    2.6710   17.3780    9.0930 H   0  0  0  0  0  0  0  0  0  0  0  0
    3.6270   15.4560    7.7520 H   0  0  0  0  0  0  0  0  0  0  0  0
    4.0110   18.3200    5.6520 H   0  0  0  0  0  0  0  0  0  0  0  0
    5.6370   16.1390    4.3430 H   0  0  0  0  0  0  0  0  0  0  0  0
    8.4230   18.4100    4.1070 H   0  0  0  0  0  0  0  0  0  0  0  0
    7.8710   15.6070    2.9110 H   0  0  0  0  0  0  0  0  0  0  0  0
    9.5970   15.4280    1.0800 H   0  0  0  0  0  0  0  0  0  0  0  0
    9.7340   14.1650    3.3520 H   0  0  0  0  0  0  0  0  0  0  0  0
    5.6850   20.2380   10.8180 H   0  0  0  0  0  0  0  0  0  0  0  0
    6.7390   18.2740   12.9800 H   0  0  0  0  0  0  0  0  0  0  0  0
  1 38  1  0  0  0  0
  1 10  1  0  0  0  0
  2 39  1  1  0  0  0
  2 28  1  0  0  0  0
  3 40  1  0  0  0  0
  3  2  1  0  0  0  0
  4  2  1  0  0  0  0
  4  7  1  0  0  0  0
  5 42  1  0  0  0  0
  6 29  1  0  0  0  0
  7  1  1  0  0  0  0
  8 28  1  0  0  0  0
  9 16  2  0  0  0  0
 10 44  1  1  0  0  0
 10 12  1  0  0  0  0
 11  7  2  0  0  0  0
 12 15  1  0  0  0  0
 12 45  1  0  0  0  0
 12 14  1  0  0  0  0
 14 75  1  0  0  0  0
 15 65  1  0  0  0  0
 16  5  1  0  0  0  0
 16 10  1  0  0  0  0
 17 66  1  0  0  0  0
 17  5  1  0  0  0  0
 18 67  1  0  0  0  0
 18 17  1  0  0  0  0
 19 18  1  0  0  0  0
 20 50  1  0  0  0  0
 20 19  1  0  0  0  0
 21 69  1  0  0  0  0
 21 20  1  0  0  0  0
 22 23  1  0  0  0  0
 22 21  1  0  0  0  0
 23 70  1  0  0  0  0
 23 52  1  0  0  0  0
 24 71  1  0  0  0  0
 24 23  1  0  0  0  0
 25 24  1  0  0  0  0
 26 25  1  0  0  0  0
 26 27  1  0  0  0  0
 27 73  1  0  0  0  0
 27  6  1  0  0  0  0
 28 56  1  1  0  0  0
 28 30  1  0  0  0  0
 29 13  2  0  0  0  0
 29  8  1  0  0  0  0
 30 57  1  0  0  0  0
 31 30  1  0  0  0  0
 31 32  2  0  0  0  0
 32 58  1  0  0  0  0
 33 32  1  0  0  0  0
 33 59  1  0  0  0  0
 34 33  2  0  0  0  0
 35 36  2  0  0  0  0
 35 34  1  0  0  0  0
 36 31  1  0  0  0  0
 37 36  1  0  0  0  0
 41  4  1  0  0  0  0
 43  8  1  0  0  0  0
 46 14  1  0  0  0  0
 47 15  1  0  0  0  0
 48 17  1  0  0  0  0
 49 18  1  0  0  0  0
 51 21  1  0  0  0  0
 53 24  1  0  0  0  0
 54 26  1  0  0  0  0
 55 27  1  0  0  0  0
 60 34  1  0  0  0  0
 61 35  1  0  0  0  0
 62 30  1  0  0  0  0
 63  4  1  0  0  0  0
 64 14  1  0  0  0  0
 68 20  1  0  0  0  0
 72 26  1  0  0  0  0
 74 15  1  0  0  0  0
M  END
>  <IC50_NM>
850

>  <number_of_rotatable_bonds>
3

>  <charge>
0

>  <lm5_entropy_jk>
31.13362949117809

$$$$
