5NXW
 OpenBabel11252210453D

 31 32  0  0  0  0  0  0  0  0999 V2000
   -3.5660    6.8180   13.4110 N   0  0  0  0  0  0  0  0  0  0  0  0
   -3.3370    4.6310   14.4640 C   0  0  0  0  0  0  0  0  0  0  0  0
   -1.9820    5.8850   12.0730 O   0  0  0  0  0  0  0  0  0  0  0  0
   -3.8650    3.6090   15.2610 C   0  0  0  0  0  0  0  0  0  0  0  0
   -1.4410   11.0500   11.7940 N   0  0  0  0  0  0  0  0  0  0  0  0
   -4.9080    2.6260   17.9420 O   0  0  0  0  0  0  0  0  0  0  0  0
   -0.4470   12.0410   13.9940 S   0  0  0  0  0  0  0  0  0  0  0  0
   -5.1960    3.7100   15.6930 C   0  0  0  0  0  0  0  0  0  0  0  0
   -1.1270   12.3620   11.5010 N   0  0  0  0  0  0  0  0  0  0  0  0
   -7.2210    2.9430   17.0530 O   0  0  0  0  0  0  0  0  0  0  0  0
   -5.8430    2.5790   16.8540 S   0  0  0  0  0  0  0  0  0  0  0  0
   -5.9760    4.8300   15.3570 C   0  0  0  0  0  0  0  0  0  0  0  0
   -0.2550   14.2940   12.4530 N   0  0  0  0  0  0  0  0  0  0  0  0
   -5.4200    5.8290   14.5510 C   0  0  0  0  0  0  0  0  0  0  0  0
   -5.6710    1.2620   16.0710 N   0  5  0  0  0  0  0  0  0  0  0  0
   -4.1080    5.7330   14.1020 C   0  0  0  0  0  0  0  0  0  0  0  0
   -2.5330    6.8630   12.5340 C   0  0  0  0  0  0  0  0  0  0  0  0
   -2.1230    8.2430   12.1770 C   0  0  0  0  0  0  0  0  0  0  0  0
   -1.1440   10.7580   13.0480 C   0  0  0  0  0  0  0  0  0  0  0  0
   -0.6170   12.9900   12.5450 C   0  0  0  0  0  0  0  0  0  0  0  0
   -1.5040    9.1450   13.6630 S   0  0  0  0  0  0  0  0  0  0  0  0
   -2.2990    4.5850   14.1560 H   0  0  0  0  0  0  0  0  0  0  0  0
   -3.9180    7.7190   13.6870 H   0  0  0  0  0  0  0  0  0  0  0  0
    0.3110   14.6930   13.1890 H   0  0  0  0  0  0  0  0  0  0  0  0
   -0.2240   14.7160   11.5350 H   0  0  0  0  0  0  0  0  0  0  0  0
   -4.8810    1.1490   16.7600 H   0  0  0  0  0  0  0  0  0  0  0  0
   -3.2290    2.7750   15.5650 H   0  0  0  0  0  0  0  0  0  0  0  0
   -6.9860    4.9620   15.7540 H   0  0  0  0  0  0  0  0  0  0  0  0
   -6.0080    6.7080   14.3040 H   0  0  0  0  0  0  0  0  0  0  0  0
   -1.3390    8.1570   11.4190 H   0  0  0  0  0  0  0  0  0  0  0  0
   -2.9860    8.7450   11.7300 H   0  0  0  0  0  0  0  0  0  0  0  0
  1 16  1  0  0  0  0
  1 17  1  0  0  0  0
  2  4  2  0  0  0  0
  2 16  1  0  0  0  0
  3 17  2  0  0  0  0
  4  8  1  0  0  0  0
  5  9  1  0  0  0  0
  5 19  2  0  0  0  0
  6 11  2  0  0  0  0
  7 19  1  0  0  0  0
  7 20  1  0  0  0  0
  8 11  1  0  0  0  0
  8 12  2  0  0  0  0
  9 20  2  0  0  0  0
 10 11  2  0  0  0  0
 11 15  1  0  0  0  0
 12 14  1  0  0  0  0
 13 20  1  0  0  0  0
 14 16  2  0  0  0  0
 17 18  1  0  0  0  0
 18 21  1  0  0  0  0
 19 21  1  0  0  0  0
 22  2  1  0  0  0  0
 23  1  1  0  0  0  0
 24 13  1  0  0  0  0
 25 13  1  0  0  0  0
 26 15  1  0  0  0  0
 27  4  1  0  0  0  0
 28 12  1  0  0  0  0
 29 14  1  0  0  0  0
 30 18  1  0  0  0  0
 31 18  1  0  0  0  0
M  CHG  1  15  -1
M  END
>  <deltaG_kcalmol>
-9.9

>  <number_of_rotatable_bonds>
6

>  <charge>
-1

>  <lm5_entropy_jk>
25.12029370685346

$$$$
