3RAK
 OpenBabel11252210453D

 39 41  0  0  1  0  0  0  0  0999 V2000
   65.9640  154.2960  -50.5690 N   0  0  0  0  0  0  0  0  0  0  0  0
   67.4010  153.3910  -52.1270 N   0  0  0  0  0  0  0  0  0  0  0  0
   64.5310  154.7310  -48.8120 N   0  0  0  0  0  0  0  0  0  0  0  0
   61.9600  153.4860  -42.9820 N   0  0  0  0  0  0  0  0  0  0  0  0
   69.1520  148.5950  -47.0260 C   0  0  0  0  0  0  0  0  0  0  0  0
   70.2180  149.0540  -47.8160 C   0  0  0  0  0  0  0  0  0  0  0  0
   70.0110  150.0620  -48.7760 C   0  0  0  0  0  0  0  0  0  0  0  0
   67.6560  150.1120  -48.1930 C   0  0  0  0  0  0  0  0  0  0  0  0
   67.8690  149.1220  -47.2210 C   0  0  0  0  0  0  0  0  0  0  0  0
   68.7300  150.6230  -48.9590 C   0  0  0  0  0  0  0  0  0  0  0  0
   68.5160  151.6520  -50.0500 C   0  0  0  0  0  0  0  0  0  0  0  0
   67.5010  152.6980  -49.8550 C   0  0  0  0  0  0  0  0  0  0  0  0
   67.0190  153.4750  -50.8600 C   0  0  0  0  0  0  0  0  0  0  0  0
   65.6490  154.1350  -49.3010 C   0  0  0  0  0  0  0  0  0  0  0  0
   63.8190  154.6120  -47.6440 C   0  0  0  0  0  0  0  0  0  0  0  0
   63.7900  153.4240  -46.9180 C   0  0  0  0  0  0  0  0  0  0  0  0
   63.0120  153.3120  -45.7680 C   0  0  0  0  0  0  0  0  0  0  0  0
   62.2550  154.4190  -45.3610 C   0  0  0  0  0  0  0  0  0  0  0  0
   62.2650  155.6230  -46.0690 C   0  0  0  0  0  0  0  0  0  0  0  0
   63.0500  155.6910  -47.2170 C   0  0  0  0  0  0  0  0  0  0  0  0
   60.1370  153.2380  -44.3450 O   0  0  0  0  0  0  0  0  0  0  0  0
   60.8340  155.4590  -43.3250 O   0  0  0  0  0  0  0  0  0  0  0  0
   69.1470  151.5860  -51.0910 O   0  0  0  0  0  0  0  0  0  0  0  0
   66.7360  153.1320  -48.3580 S   0  0  0  0  0  0  0  0  0  0  0  0
   61.1420  154.2370  -44.0500 S   0  0  0  0  0  0  0  0  0  0  0  0
   69.3100  147.8050  -46.2910 H   0  0  0  0  0  0  0  0  0  0  0  0
   71.2020  148.6060  -47.6990 H   0  0  0  0  0  0  0  0  0  0  0  0
   67.1650  154.1310  -52.7770 H   0  0  0  0  0  0  0  0  0  0  0  0
   68.2330  152.8310  -52.2650 H   0  0  0  0  0  0  0  0  0  0  0  0
   70.8410  150.4010  -49.3970 H   0  0  0  0  0  0  0  0  0  0  0  0
   64.0680  155.3340  -49.4830 H   0  0  0  0  0  0  0  0  0  0  0  0
   66.6430  150.4620  -48.3660 H   0  0  0  0  0  0  0  0  0  0  0  0
   61.3440  152.7150  -43.2600 H   0  0  0  0  0  0  0  0  0  0  0  0
   61.3950  154.1000  -42.4030 H   0  0  0  0  0  0  0  0  0  0  0  0
   67.0330  148.7500  -46.6280 H   0  0  0  0  0  0  0  0  0  0  0  0
   64.3350  152.5550  -47.2640 H   0  0  0  0  0  0  0  0  0  0  0  0
   63.0020  152.3630  -45.2250 H   0  0  0  0  0  0  0  0  0  0  0  0
   61.6530  156.4870  -45.7780 H   0  0  0  0  0  0  0  0  0  0  0  0
   63.0350  156.5960  -47.8080 H   0  0  0  0  0  0  0  0  0  0  0  0
  1 13  1  0  0  0  0
  1 14  2  0  0  0  0
  2 13  1  0  0  0  0
  2 28  1  0  0  0  0
  2 29  1  0  0  0  0
  3 14  1  0  0  0  0
  3 15  1  0  0  0  0
  3 31  1  0  0  0  0
  4 25  1  0  0  0  0
  4 33  1  0  0  0  0
  4 34  1  0  0  0  0
  5  6  2  0  0  0  0
  5  9  1  0  0  0  0
  5 26  1  0  0  0  0
  6  7  1  0  0  0  0
  6 27  1  0  0  0  0
  7 10  2  0  0  0  0
  7 30  1  0  0  0  0
  8  9  2  0  0  0  0
  8 10  1  0  0  0  0
  8 32  1  0  0  0  0
  9 35  1  0  0  0  0
 11 10  1  0  0  0  0
 11 12  1  0  0  0  0
 11 23  2  0  0  0  0
 12 13  2  0  0  0  0
 12 24  1  0  0  0  0
 14 24  1  0  0  0  0
 15 16  2  0  0  0  0
 15 20  1  0  0  0  0
 16 17  1  0  0  0  0
 16 36  1  0  0  0  0
 17 18  2  0  0  0  0
 17 37  1  0  0  0  0
 18 19  1  0  0  0  0
 18 25  1  0  0  0  0
 19 20  2  0  0  0  0
 19 38  1  0  0  0  0
 20 39  1  0  0  0  0
 21 25  2  0  0  0  0
 22 25  2  0  0  0  0
M  END
>  <lm5_entropy_jk>
22.952794734129974

>  <number_of_rotatable_bonds>
5

>  <IC50_NM>
130

>  <charge>
0

$$$$
