3RAK
 OpenBabel11252210453D

 39 41  0  0  1  0  0  0  0  0999 V2000
   65.9330  154.3860  -50.4720 N   0  0  0  0  0  0  0  0  0  0  0  0
   67.3870  153.5140  -52.0430 N   0  0  0  0  0  0  0  0  0  0  0  0
   64.5430  154.8660  -48.6890 N   0  0  0  0  0  0  0  0  0  0  0  0
   61.8960  153.7690  -42.8730 N   0  0  0  0  0  0  0  0  0  0  0  0
   69.2070  148.8950  -46.7940 C   0  0  0  0  0  0  0  0  0  0  0  0
   70.2870  149.5300  -47.4260 C   0  0  0  0  0  0  0  0  0  0  0  0
   70.0640  150.4700  -48.4490 C   0  0  0  0  0  0  0  0  0  0  0  0
   67.6730  150.1140  -48.2270 C   0  0  0  0  0  0  0  0  0  0  0  0
   67.8980  149.1860  -47.1980 C   0  0  0  0  0  0  0  0  0  0  0  0
   68.7510  150.7860  -48.8460 C   0  0  0  0  0  0  0  0  0  0  0  0
   68.5220  151.7750  -49.9650 C   0  0  0  0  0  0  0  0  0  0  0  0
   67.4630  152.7700  -49.7870 C   0  0  0  0  0  0  0  0  0  0  0  0
   66.9800  153.5570  -50.7800 C   0  0  0  0  0  0  0  0  0  0  0  0
   65.6070  154.1990  -49.2080 C   0  0  0  0  0  0  0  0  0  0  0  0
   63.8170  154.7640  -47.5270 C   0  0  0  0  0  0  0  0  0  0  0  0
   63.6990  153.5620  -46.8280 C   0  0  0  0  0  0  0  0  0  0  0  0
   62.8870  153.4650  -45.6980 C   0  0  0  0  0  0  0  0  0  0  0  0
   62.1960  154.6090  -45.2750 C   0  0  0  0  0  0  0  0  0  0  0  0
   62.2970  155.8290  -45.9540 C   0  0  0  0  0  0  0  0  0  0  0  0
   63.1060  155.8770  -47.0890 C   0  0  0  0  0  0  0  0  0  0  0  0
   60.1200  153.3890  -44.2090 O   0  0  0  0  0  0  0  0  0  0  0  0
   60.7320  155.7010  -43.2770 O   0  0  0  0  0  0  0  0  0  0  0  0
   69.1800  151.7280  -50.9910 O   0  0  0  0  0  0  0  0  0  0  0  0
   66.6070  153.0750  -48.3120 S   0  0  0  0  0  0  0  0  0  0  0  0
   61.0650  154.4650  -43.9690 S   0  0  0  0  0  0  0  0  0  0  0  0
   69.3820  148.1610  -46.0060 H   0  0  0  0  0  0  0  0  0  0  0  0
   71.2980  149.2760  -47.1270 H   0  0  0  0  0  0  0  0  0  0  0  0
   67.0780  154.2170  -52.7050 H   0  0  0  0  0  0  0  0  0  0  0  0
   68.2170  152.9580  -52.2010 H   0  0  0  0  0  0  0  0  0  0  0  0
   70.9040  150.9570  -48.9430 H   0  0  0  0  0  0  0  0  0  0  0  0
   64.0930  155.4670  -49.3690 H   0  0  0  0  0  0  0  0  0  0  0  0
   66.6540  150.3060  -48.5480 H   0  0  0  0  0  0  0  0  0  0  0  0
   61.1450  153.0880  -42.9900 H   0  0  0  0  0  0  0  0  0  0  0  0
   61.4690  154.5390  -42.3590 H   0  0  0  0  0  0  0  0  0  0  0  0
   67.0580  148.6850  -46.7190 H   0  0  0  0  0  0  0  0  0  0  0  0
   64.2010  152.6710  -47.1810 H   0  0  0  0  0  0  0  0  0  0  0  0
   62.7950  152.5030  -45.1810 H   0  0  0  0  0  0  0  0  0  0  0  0
   61.7370  156.7230  -45.6520 H   0  0  0  0  0  0  0  0  0  0  0  0
   63.1600  156.7960  -47.6580 H   0  0  0  0  0  0  0  0  0  0  0  0
  1 13  1  0  0  0  0
  1 14  2  0  0  0  0
  2 13  1  0  0  0  0
  2 28  1  0  0  0  0
  2 29  1  0  0  0  0
  3 14  1  0  0  0  0
  3 15  1  0  0  0  0
  3 31  1  0  0  0  0
  4 25  1  0  0  0  0
  4 33  1  0  0  0  0
  4 34  1  0  0  0  0
  5  6  2  0  0  0  0
  5  9  1  0  0  0  0
  5 26  1  0  0  0  0
  6  7  1  0  0  0  0
  6 27  1  0  0  0  0
  7 10  2  0  0  0  0
  7 30  1  0  0  0  0
  8  9  2  0  0  0  0
  8 10  1  0  0  0  0
  8 32  1  0  0  0  0
  9 35  1  0  0  0  0
 11 10  1  0  0  0  0
 11 12  1  0  0  0  0
 11 23  2  0  0  0  0
 12 13  2  0  0  0  0
 12 24  1  0  0  0  0
 14 24  1  0  0  0  0
 15 16  2  0  0  0  0
 15 20  1  0  0  0  0
 16 17  1  0  0  0  0
 16 36  1  0  0  0  0
 17 18  2  0  0  0  0
 17 37  1  0  0  0  0
 18 19  1  0  0  0  0
 18 25  1  0  0  0  0
 19 20  2  0  0  0  0
 19 38  1  0  0  0  0
 20 39  1  0  0  0  0
 21 25  2  0  0  0  0
 22 25  2  0  0  0  0
M  END
>  <lm5_entropy_jk>
22.952794734129974

>  <number_of_rotatable_bonds>
5

>  <IC50_NM>
130

>  <charge>
0

$$$$
