1US0
 OpenBabel11252210453D

 35 36  0  0  0  0  0  0  0  0999 V2000
   15.4550  -10.0290   18.3110 C   0  0  0  0  0  0  0  0  0  0  0  0
   16.0580  -11.2780   15.8530 C   0  0  0  0  0  0  0  0  0  0  0  0
   16.3290   -9.4270   17.3970 C   0  0  0  0  0  0  0  0  0  0  0  0
   14.9420  -11.2780   17.9730 C   0  0  0  0  0  0  0  0  0  0  0  0
   15.2330  -11.9300   16.7780 C   0  0  0  0  0  0  0  0  0  0  0  0
   16.5940  -10.0100   16.1180 C   0  0  0  0  0  0  0  0  0  0  0  0
   15.4720   -3.7050    9.9230 Br  0  0  0  0  0  0  0  0  0  0  0  0
   14.1560  -11.8850   18.8630 F   0  0  0  0  0  0  0  0  0  0  0  0
   17.4350   -9.3040   15.1320 C   0  0  0  0  0  0  0  0  0  0  0  0
   18.3030   -7.1040   14.3290 C   0  0  0  0  0  0  0  0  0  0  0  0
   19.5700   -5.1030   12.8020 F   0  0  0  0  0  0  0  0  0  0  0  0
   17.0690   -8.3170   17.6170 O   0  0  0  0  0  0  0  0  0  0  0  0
   18.3570  -10.3200   14.1100 S   0  0  0  0  0  0  0  0  0  0  0  0
   17.3980   -7.9510   15.1360 N   0  0  0  0  0  0  0  0  0  0  0  0
   16.7670   -7.3740   18.6820 C   0  0  0  0  0  0  0  0  0  0  0  0
   17.5840   -6.3060   13.2650 C   0  0  0  0  0  0  0  0  0  0  0  0
   16.3520   -4.7820   11.2480 C   0  0  0  0  0  0  0  0  0  0  0  0
   16.2300   -6.4820   12.9540 C   0  0  0  0  0  0  0  0  0  0  0  0
   18.2830   -5.3270   12.5270 C   0  0  0  0  0  0  0  0  0  0  0  0
   17.7040   -4.5590   11.5150 C   0  0  0  0  0  0  0  0  0  0  0  0
   15.6100   -5.7320   11.9450 C   0  0  0  0  0  0  0  0  0  0  0  0
   15.8250   -6.2710   18.0820 C   0  0  0  0  0  0  0  0  0  0  0  0
   15.2280   -5.5860   18.9280 O   0  0  0  0  0  0  0  0  0  0  0  0
   15.7520   -6.2060   16.8370 O   0  5  0  0  0  0  0  0  0  0  0  0
   16.3410   -7.8810   19.5610 H   0  0  0  0  0  0  0  0  0  0  0  0
   17.7890   -6.9920   18.9010 H   0  0  0  0  0  0  0  0  0  0  0  0
   18.8070   -6.3890   15.0470 H   0  0  0  0  0  0  0  0  0  0  0  0
   19.1070   -7.7270   13.8410 H   0  0  0  0  0  0  0  0  0  0  0  0
   14.8320  -12.9210   16.5540 H   0  0  0  0  0  0  0  0  0  0  0  0
   16.2530  -11.7890   14.9010 H   0  0  0  0  0  0  0  0  0  0  0  0
   14.5470   -5.8760   11.7280 H   0  0  0  0  0  0  0  0  0  0  0  0
   18.2640   -3.7890   10.9790 H   0  0  0  0  0  0  0  0  0  0  0  0
   15.6230   -7.2060   13.5060 H   0  0  0  0  0  0  0  0  0  0  0  0
   15.2180   -9.5670   19.2620 H   0  0  0  0  0  0  0  0  0  0  0  0
   16.8070   -7.3950   15.8450 H   0  0  0  0  0  0  0  0  0  0  0  0
  1 34  1  0  0  0  0
  2  6  2  0  0  0  0
  2  5  1  0  0  0  0
  3 12  1  0  0  0  0
  3  1  2  0  0  0  0
  4  1  1  0  0  0  0
  4  8  1  0  0  0  0
  5  4  2  0  0  0  0
  6  3  1  0  0  0  0
  7 17  1  0  0  0  0
  9 14  1  0  0  0  0
  9  6  1  0  0  0  0
 10 27  1  0  0  0  0
 10 14  1  0  0  0  0
 12 15  1  0  0  0  0
 13  9  2  0  0  0  0
 14 35  1  0  0  0  0
 15 26  1  0  0  0  0
 15 25  1  0  0  0  0
 16 10  1  0  0  0  0
 17 20  2  0  0  0  0
 17 21  1  0  0  0  0
 18 16  1  0  0  0  0
 18 33  1  0  0  0  0
 19 11  1  0  0  0  0
 19 16  2  0  0  0  0
 20 19  1  0  0  0  0
 21 18  2  0  0  0  0
 22 15  1  0  0  0  0
 22 23  2  0  0  0  0
 24 22  1  0  0  0  0
 28 10  1  0  0  0  0
 29  5  1  0  0  0  0
 30  2  1  0  0  0  0
 31 21  1  0  0  0  0
 32 20  1  0  0  0  0
M  CHG  1  24  -1
M  END
>  <lm5_entropy_jk>
26.450573499596743

>  <number_of_rotatable_bonds>
7

>  <deltaG_kcalmol>
-9.56

>  <charge>
-1

$$$$
