5NYA
 OpenBabel11252210453D

 16 16  0  0  0  0  0  0  0  0999 V2000
   -5.0650    3.8830   15.6770 C   0  0  0  0  0  0  0  0  0  0  0  0
   -5.4460    1.0450   15.9460 N   0  5  0  0  0  0  0  0  0  0  0  0
   -5.0080    2.6840   17.9580 O   0  0  0  0  0  0  0  0  0  0  0  0
   -3.8140    3.8360   15.0660 C   0  0  0  0  0  0  0  0  0  0  0  0
   -7.1370    2.6200   16.5470 O   0  0  0  0  0  0  0  0  0  0  0  0
   -3.3570    4.9220   14.3090 C   0  0  0  0  0  0  0  0  0  0  0  0
   -4.1550    6.0600   14.1610 C   0  0  0  0  0  0  0  0  0  0  0  0
   -5.4110    6.1080   14.7730 C   0  0  0  0  0  0  0  0  0  0  0  0
   -5.8600    5.0240   15.5370 C   0  0  0  0  0  0  0  0  0  0  0  0
   -5.6680    2.5300   16.6580 S   0  0  0  0  0  0  0  0  0  0  0  0
   -3.1630    2.9640   15.1490 H   0  0  0  0  0  0  0  0  0  0  0  0
   -2.3760    4.8900   13.8300 H   0  0  0  0  0  0  0  0  0  0  0  0
   -3.7960    6.9070   13.5740 H   0  0  0  0  0  0  0  0  0  0  0  0
   -6.0230    7.0030   14.6600 H   0  0  0  0  0  0  0  0  0  0  0  0
   -6.8380    5.1020   16.0250 H   0  0  0  0  0  0  0  0  0  0  0  0
   -4.5020    0.6540   16.3030 H   0  0  0  0  0  0  0  0  0  0  0  0
  1  4  2  0  0  0  0
  1  9  1  0  0  0  0
  1 10  1  0  0  0  0
  2 10  1  0  0  0  0
  3 10  2  0  0  0  0
  4  6  1  0  0  0  0
  5 10  2  0  0  0  0
  6  7  2  0  0  0  0
  7  8  1  0  0  0  0
  8  9  2  0  0  0  0
 11  4  1  0  0  0  0
 12  6  1  0  0  0  0
 13  7  1  0  0  0  0
 14  8  1  0  0  0  0
 15  9  1  0  0  0  0
 16  2  1  0  0  0  0
M  CHG  1   2  -1
M  END
>  <deltaG_kcalmol>
-8.7

>  <number_of_rotatable_bonds>
1

>  <charge>
-1

>  <lm5_entropy_jk>
14.133140156892344

$$$$
