1HSG
 OpenBabel11252210453D

 93 97  0  0  1  0  0  0  0  0999 V2000
    6.0590    0.9450   11.3130 C   0  0  0  0  0  0  0  0  0  0  0  0
    7.3390    1.7110   11.5680 N   0  3  1  0  0  0  0  0  0  0  0  0
    3.7400   -0.9780   12.2540 O   0  0  0  0  0  0  0  0  0  0  0  0
    5.0630    1.0320   12.4950 C   0  0  1  0  0  0  0  0  0  0  0  0
    2.7210    1.0330   11.8300 N   0  0  0  0  0  0  0  0  0  0  0  0
    5.0630   -0.2220   17.1510 O   0  0  0  0  0  0  0  0  0  0  0  0
    3.7870    0.2400   12.1620 C   0  0  0  0  0  0  0  0  0  0  0  0
    5.7230    0.5500   13.7380 N   0  0  0  0  0  0  0  0  0  0  0  0
    5.9050   -3.7980   15.1500 O   0  0  0  0  0  0  0  0  0  0  0  0
    1.3790    0.6600   11.7210 C   0  0  0  0  0  0  0  0  0  0  0  0
    5.9450   -4.3780   17.3550 N   0  0  0  0  0  0  0  0  0  0  0  0
    6.4280   -5.9130   19.6550 O   0  0  0  0  0  0  0  0  0  0  0  0
    0.5910    1.8830   11.4740 C   0  0  0  0  0  0  0  0  0  0  0  0
    7.6820    4.4650    8.0090 N   0  0  0  0  0  0  0  0  0  0  0  0
    0.9090    0.0670   12.9870 C   0  0  0  0  0  0  0  0  0  0  0  0
    1.1820   -0.2560   10.5850 C   0  0  0  0  0  0  0  0  0  0  0  0
    7.0120    1.2040   14.0410 C   0  0  0  0  0  0  0  0  0  0  0  0
    7.9560    1.0960   12.8190 C   0  0  0  0  0  0  0  0  0  0  0  0
    4.8310    0.5640   14.9180 C   0  0  0  0  0  0  0  0  0  0  0  0
    5.0680   -0.6560   15.8140 C   0  0  2  0  0  0  0  0  0  0  0  0
    3.9330   -1.6800   15.6520 C   0  0  0  0  0  0  0  0  0  0  0  0
    4.1160   -2.9410   16.5630 C   0  0  1  0  0  0  0  0  0  0  0  0
    2.8240   -3.8210   16.4550 C   0  0  0  0  0  0  0  0  0  0  0  0
    2.9090   -5.1810   17.1300 C   0  0  0  0  0  0  0  0  0  0  0  0
    3.1600   -5.2720   18.5060 C   0  0  0  0  0  0  0  0  0  0  0  0
    3.1880   -6.5220   19.1480 C   0  0  0  0  0  0  0  0  0  0  0  0
    2.9780   -7.6930   18.4030 C   0  0  0  0  0  0  0  0  0  0  0  0
    2.7420   -7.6120   17.0210 C   0  0  0  0  0  0  0  0  0  0  0  0
    2.6960   -6.3560   16.3900 C   0  0  0  0  0  0  0  0  0  0  0  0
    5.4120   -3.7320   16.2660 C   0  0  0  0  0  0  0  0  0  0  0  0
    6.7700   -5.6020   17.2570 C   0  0  2  0  0  0  0  0  0  0  0  0
    6.5280   -6.6180   18.4200 C   0  0  1  0  0  0  0  0  0  0  0  0
    7.8330   -7.4350   18.5100 C   0  0  0  0  0  0  0  0  0  0  0  0
    8.8540   -6.4310   18.0600 C   0  0  0  0  0  0  0  0  0  0  0  0
   10.2280   -6.4690   18.2940 C   0  0  0  0  0  0  0  0  0  0  0  0
   11.0100   -5.4050   17.8050 C   0  0  0  0  0  0  0  0  0  0  0  0
   10.4100   -4.3390   17.0960 C   0  0  0  0  0  0  0  0  0  0  0  0
    9.0210   -4.3280   16.8620 C   0  0  0  0  0  0  0  0  0  0  0  0
    8.2610   -5.3900   17.3630 C   0  0  0  0  0  0  0  0  0  0  0  0
    8.2620    1.5340   10.3720 C   0  0  0  0  0  0  0  0  0  0  0  0
    7.8130    2.3310    9.1530 C   0  0  0  0  0  0  0  0  0  0  0  0
    8.0310    3.7220    9.0830 C   0  0  0  0  0  0  0  0  0  0  0  0
    7.1010    3.8500    6.9580 C   0  0  0  0  0  0  0  0  0  0  0  0
    6.8450    2.4700    6.9450 C   0  0  0  0  0  0  0  0  0  0  0  0
    7.2000    1.6930    8.0610 C   0  0  0  0  0  0  0  0  0  0  0  0
    6.3030   -0.1100   11.1820 H   0  0  0  0  0  0  0  0  0  0  0  0
    5.6030    1.3200   10.3860 H   0  0  0  0  0  0  0  0  0  0  0  0
    4.7540    2.0740   12.6390 H   0  0  0  0  0  0  0  0  0  0  0  0
    2.9100    2.0050   11.6690 H   0  0  0  0  0  0  0  0  0  0  0  0
    5.9820    0.1170   17.3300 H   0  0  0  0  0  0  0  0  0  0  0  0
    5.4570   -4.1920   18.2250 H   0  0  0  0  0  0  0  0  0  0  0  0
    6.3650   -4.9690   19.4160 H   0  0  0  0  0  0  0  0  0  0  0  0
   -0.4750    1.6500   11.3900 H   0  0  0  0  0  0  0  0  0  0  0  0
    0.7020    2.5990   12.2920 H   0  0  0  0  0  0  0  0  0  0  0  0
    0.9020    2.3640   10.5400 H   0  0  0  0  0  0  0  0  0  0  0  0
   -0.1600   -0.1500   12.9440 H   0  0  0  0  0  0  0  0  0  0  0  0
    1.4490   -0.8630   13.1930 H   0  0  0  0  0  0  0  0  0  0  0  0
    1.0980    0.7540   13.8120 H   0  0  0  0  0  0  0  0  0  0  0  0
    0.1340   -0.5460   10.4820 H   0  0  0  0  0  0  0  0  0  0  0  0
    1.5190    0.2230    9.6590 H   0  0  0  0  0  0  0  0  0  0  0  0
    1.7890   -1.1540   10.7230 H   0  0  0  0  0  0  0  0  0  0  0  0
    7.4740    0.7360   14.9280 H   0  0  0  0  0  0  0  0  0  0  0  0
    6.8470    2.2630   14.2940 H   0  0  0  0  0  0  0  0  0  0  0  0
    8.9120    1.5850   13.0400 H   0  0  0  0  0  0  0  0  0  0  0  0
    8.1410    0.0330   12.6300 H   0  0  0  0  0  0  0  0  0  0  0  0
    3.7750    0.5770   14.6270 H   0  0  0  0  0  0  0  0  0  0  0  0
    4.9990    1.4710   15.5080 H   0  0  0  0  0  0  0  0  0  0  0  0
    6.0390   -1.1130   15.5580 H   0  0  0  0  0  0  0  0  0  0  0  0
    3.8890   -1.9690   14.5960 H   0  0  0  0  0  0  0  0  0  0  0  0
    2.9790   -1.1920   15.8800 H   0  0  0  0  0  0  0  0  0  0  0  0
    4.2150   -2.5960   17.6030 H   0  0  0  0  0  0  0  0  0  0  0  0
    2.5610   -3.9530   15.3990 H   0  0  0  0  0  0  0  0  0  0  0  0
    1.9860   -3.2710   16.9020 H   0  0  0  0  0  0  0  0  0  0  0  0
    3.3300   -4.3680   19.0780 H   0  0  0  0  0  0  0  0  0  0  0  0
    3.3790   -6.5820   20.2200 H   0  0  0  0  0  0  0  0  0  0  0  0
    3.0000   -8.6650   18.8970 H   0  0  0  0  0  0  0  0  0  0  0  0
    2.5890   -8.5240   16.4450 H   0  0  0  0  0  0  0  0  0  0  0  0
    2.4830   -6.2960   15.3270 H   0  0  0  0  0  0  0  0  0  0  0  0
    6.5630   -6.1140   16.3020 H   0  0  0  0  0  0  0  0  0  0  0  0
    5.6380   -7.2420   18.2270 H   0  0  0  0  0  0  0  0  0  0  0  0
    7.8020   -8.2850   17.8150 H   0  0  0  0  0  0  0  0  0  0  0  0
    8.0040   -7.8280   19.5180 H   0  0  0  0  0  0  0  0  0  0  0  0
   10.6760   -7.3060   18.8250 H   0  0  0  0  0  0  0  0  0  0  0  0
   12.0840   -5.4070   17.9710 H   0  0  0  0  0  0  0  0  0  0  0  0
   11.0230   -3.5180   16.7290 H   0  0  0  0  0  0  0  0  0  0  0  0
    8.5450   -3.5190   16.3110 H   0  0  0  0  0  0  0  0  0  0  0  0
    8.3350    0.4680   10.1380 H   0  0  0  0  0  0  0  0  0  0  0  0
    9.2620    1.8700   10.6570 H   0  0  0  0  0  0  0  0  0  0  0  0
    8.5030    4.2600    9.9100 H   0  0  0  0  0  0  0  0  0  0  0  0
    6.8320    4.4810    6.1020 H   0  0  0  0  0  0  0  0  0  0  0  0
    6.3740    2.0110    6.0760 H   0  0  0  0  0  0  0  0  0  0  0  0
    7.0070    0.6210    8.0690 H   0  0  0  0  0  0  0  0  0  0  0  0
    7.1140    2.7170   11.7230 H   0  0  0  0  0  0  0  0  0  0  0  0
  1  2  1  0  0  0  0
  1  4  1  0  0  0  0
  1 46  1  0  0  0  0
  1 47  1  0  0  0  0
  2 18  1  0  0  0  0
  2 40  1  0  0  0  0
  2 93  1  1  0  0  0
  3  7  2  0  0  0  0
  4  7  1  0  0  0  0
  4  8  1  0  0  0  0
  4 48  1  1  0  0  0
  5  7  1  0  0  0  0
  5 10  1  0  0  0  0
  5 49  1  0  0  0  0
  6 20  1  0  0  0  0
  6 50  1  0  0  0  0
  8 17  1  0  0  0  0
  8 19  1  0  0  0  0
  9 30  2  0  0  0  0
 10 13  1  0  0  0  0
 10 15  1  0  0  0  0
 10 16  1  0  0  0  0
 11 30  1  0  0  0  0
 11 31  1  0  0  0  0
 11 51  1  0  0  0  0
 12 32  1  0  0  0  0
 12 52  1  0  0  0  0
 13 53  1  0  0  0  0
 13 54  1  0  0  0  0
 13 55  1  0  0  0  0
 14 42  2  0  0  0  0
 14 43  1  0  0  0  0
 15 56  1  0  0  0  0
 15 57  1  0  0  0  0
 15 58  1  0  0  0  0
 16 59  1  0  0  0  0
 16 60  1  0  0  0  0
 16 61  1  0  0  0  0
 17 18  1  0  0  0  0
 17 62  1  0  0  0  0
 17 63  1  0  0  0  0
 18 64  1  0  0  0  0
 18 65  1  0  0  0  0
 19 20  1  0  0  0  0
 19 66  1  0  0  0  0
 19 67  1  0  0  0  0
 20 21  1  0  0  0  0
 20 68  1  6  0  0  0
 21 22  1  0  0  0  0
 21 69  1  0  0  0  0
 21 70  1  0  0  0  0
 22 23  1  0  0  0  0
 22 30  1  0  0  0  0
 22 71  1  1  0  0  0
 23 24  1  0  0  0  0
 23 72  1  0  0  0  0
 23 73  1  0  0  0  0
 24 25  2  0  0  0  0
 24 29  1  0  0  0  0
 25 26  1  0  0  0  0
 25 74  1  0  0  0  0
 26 27  2  0  0  0  0
 26 75  1  0  0  0  0
 27 28  1  0  0  0  0
 27 76  1  0  0  0  0
 28 29  2  0  0  0  0
 28 77  1  0  0  0  0
 29 78  1  0  0  0  0
 31 32  1  0  0  0  0
 31 39  1  0  0  0  0
 31 79  1  6  0  0  0
 32 33  1  0  0  0  0
 32 80  1  6  0  0  0
 33 34  1  0  0  0  0
 33 81  1  0  0  0  0
 33 82  1  0  0  0  0
 34 35  2  0  0  0  0
 34 39  1  0  0  0  0
 35 36  1  0  0  0  0
 35 83  1  0  0  0  0
 36 37  2  0  0  0  0
 36 84  1  0  0  0  0
 37 38  1  0  0  0  0
 37 85  1  0  0  0  0
 38 39  2  0  0  0  0
 38 86  1  0  0  0  0
 40 41  1  0  0  0  0
 40 87  1  0  0  0  0
 40 88  1  0  0  0  0
 41 42  1  0  0  0  0
 41 45  2  0  0  0  0
 42 89  1  0  0  0  0
 43 44  2  0  0  0  0
 43 90  1  0  0  0  0
 44 45  1  0  0  0  0
 44 91  1  0  0  0  0
 45 92  1  0  0  0  0
M  CHG  1   2   1
M  END
>  <charge>
1

>  <KI_NM>
0.12

>  <number_of_rotatable_bonds>
14

>  <lm5_entropy_jk>
41.86641068412992

>  <ligand_crystal_conformation>
B

$$$$
