1HSG
 OpenBabel11252210453D

 93 97  0  0  1  0  0  0  0  0999 V2000
    5.9360    1.0790   11.2580 C   0  0  0  0  0  0  0  0  0  0  0  0
    7.2550    1.8000   11.3700 N   0  3  1  0  0  0  0  0  0  0  0  0
    3.8010   -0.8860   12.1710 O   0  0  0  0  0  0  0  0  0  0  0  0
    5.1120    1.0970   12.5620 C   0  0  1  0  0  0  0  0  0  0  0  0
    2.6880    1.1270   12.2690 N   0  0  0  0  0  0  0  0  0  0  0  0
    5.2180   -0.3170   17.1420 O   0  0  0  0  0  0  0  0  0  0  0  0
    3.8050    0.3280   12.3180 C   0  0  0  0  0  0  0  0  0  0  0  0
    5.9190    0.5200   13.6750 N   0  0  0  0  0  0  0  0  0  0  0  0
    5.7670   -3.8540   14.8570 O   0  0  0  0  0  0  0  0  0  0  0  0
    1.3550    0.7330   12.0780 C   0  0  0  0  0  0  0  0  0  0  0  0
    5.8160   -4.3570   17.0810 N   0  0  0  0  0  0  0  0  0  0  0  0
    6.3510   -5.7230   19.4170 O   0  0  0  0  0  0  0  0  0  0  0  0
    0.5080    1.9420   12.0650 C   0  0  0  0  0  0  0  0  0  0  0  0
    6.5950    4.5560    7.9490 N   0  0  0  0  0  0  0  0  0  0  0  0
    0.9210   -0.1350   13.1830 C   0  0  0  0  0  0  0  0  0  0  0  0
    1.1800    0.0580   10.7850 C   0  0  0  0  0  0  0  0  0  0  0  0
    7.2590    1.1230   13.8200 C   0  0  0  0  0  0  0  0  0  0  0  0
    8.0130    1.0690   12.4730 C   0  0  0  0  0  0  0  0  0  0  0  0
    5.2120    0.5910   14.9740 C   0  0  0  0  0  0  0  0  0  0  0  0
    5.2680   -0.6880   15.7770 C   0  0  2  0  0  0  0  0  0  0  0  0
    4.0490   -1.5710   15.4620 C   0  0  0  0  0  0  0  0  0  0  0  0
    4.0780   -2.8750   16.3010 C   0  0  1  0  0  0  0  0  0  0  0  0
    2.7530   -3.6800   16.1760 C   0  0  0  0  0  0  0  0  0  0  0  0
    2.8570   -5.1000   16.7100 C   0  0  0  0  0  0  0  0  0  0  0  0
    3.0630   -5.3190   18.0830 C   0  0  0  0  0  0  0  0  0  0  0  0
    3.1230   -6.6270   18.5950 C   0  0  0  0  0  0  0  0  0  0  0  0
    2.9990   -7.7230   17.7250 C   0  0  0  0  0  0  0  0  0  0  0  0
    2.8180   -7.5110   16.3480 C   0  0  0  0  0  0  0  0  0  0  0  0
    2.7400   -6.2000   15.8440 C   0  0  0  0  0  0  0  0  0  0  0  0
    5.3040   -3.7320   15.9830 C   0  0  0  0  0  0  0  0  0  0  0  0
    6.6550   -5.5460   17.0090 C   0  0  2  0  0  0  0  0  0  0  0  0
    6.5060   -6.5020   18.2340 C   0  0  1  0  0  0  0  0  0  0  0  0
    7.8750   -7.1950   18.3600 C   0  0  0  0  0  0  0  0  0  0  0  0
    8.7910   -6.1440   17.8100 C   0  0  0  0  0  0  0  0  0  0  0  0
   10.1450   -6.0100   18.0600 C   0  0  0  0  0  0  0  0  0  0  0  0
   10.8090   -4.8820   17.5370 C   0  0  0  0  0  0  0  0  0  0  0  0
   10.1220   -3.9350   16.7510 C   0  0  0  0  0  0  0  0  0  0  0  0
    8.7530   -4.1030   16.4940 C   0  0  0  0  0  0  0  0  0  0  0  0
    8.1130   -5.2180   17.0460 C   0  0  0  0  0  0  0  0  0  0  0  0
    8.0000    1.6970   10.0400 C   0  0  0  0  0  0  0  0  0  0  0  0
    7.3340    2.4460    8.8890 C   0  0  0  0  0  0  0  0  0  0  0  0
    7.1230    3.8390    8.9650 C   0  0  0  0  0  0  0  0  0  0  0  0
    6.2580    3.9160    6.8100 C   0  0  0  0  0  0  0  0  0  0  0  0
    6.4400    2.5330    6.6460 C   0  0  0  0  0  0  0  0  0  0  0  0
    6.9850    1.7800    7.7000 C   0  0  0  0  0  0  0  0  0  0  0  0
    6.1270    0.0280   11.0530 H   0  0  0  0  0  0  0  0  0  0  0  0
    5.3620    1.5060   10.4210 H   0  0  0  0  0  0  0  0  0  0  0  0
    4.8380    2.1290   12.8130 H   0  0  0  0  0  0  0  0  0  0  0  0
    2.8440    2.1150   12.3050 H   0  0  0  0  0  0  0  0  0  0  0  0
    6.1360   -0.0670   17.4090 H   0  0  0  0  0  0  0  0  0  0  0  0
    5.3840   -4.0990   17.9610 H   0  0  0  0  0  0  0  0  0  0  0  0
    6.4380   -4.8030   19.1040 H   0  0  0  0  0  0  0  0  0  0  0  0
   -0.5380    1.6720   11.8840 H   0  0  0  0  0  0  0  0  0  0  0  0
    0.5510    2.4660   13.0210 H   0  0  0  0  0  0  0  0  0  0  0  0
    0.8150    2.6210   11.2600 H   0  0  0  0  0  0  0  0  0  0  0  0
   -0.1360   -0.3870   13.0900 H   0  0  0  0  0  0  0  0  0  0  0  0
    1.5000   -1.0630   13.1800 H   0  0  0  0  0  0  0  0  0  0  0  0
    1.0880    0.3610   14.1430 H   0  0  0  0  0  0  0  0  0  0  0  0
    0.1550   -0.2910   10.6430 H   0  0  0  0  0  0  0  0  0  0  0  0
    1.4580    0.7250    9.9620 H   0  0  0  0  0  0  0  0  0  0  0  0
    1.8540   -0.7950   10.7460 H   0  0  0  0  0  0  0  0  0  0  0  0
    7.8210    0.5970   14.6130 H   0  0  0  0  0  0  0  0  0  0  0  0
    7.1620    2.1710   14.1490 H   0  0  0  0  0  0  0  0  0  0  0  0
    9.0080    1.5090   12.5920 H   0  0  0  0  0  0  0  0  0  0  0  0
    8.1240    0.0140   12.1970 H   0  0  0  0  0  0  0  0  0  0  0  0
    4.1640    0.8930   14.8630 H   0  0  0  0  0  0  0  0  0  0  0  0
    5.6830    1.3430   15.6130 H   0  0  0  0  0  0  0  0  0  0  0  0
    6.2100   -1.2150   15.5500 H   0  0  0  0  0  0  0  0  0  0  0  0
    4.0620   -1.8070   14.3950 H   0  0  0  0  0  0  0  0  0  0  0  0
    3.1290   -1.0060   15.6470 H   0  0  0  0  0  0  0  0  0  0  0  0
    4.1850   -2.5840   17.3520 H   0  0  0  0  0  0  0  0  0  0  0  0
    2.4140   -3.6910   15.1320 H   0  0  0  0  0  0  0  0  0  0  0  0
    1.9850   -3.1530   16.7510 H   0  0  0  0  0  0  0  0  0  0  0  0
    3.1700   -4.4710   18.7530 H   0  0  0  0  0  0  0  0  0  0  0  0
    3.2720   -6.7890   19.6620 H   0  0  0  0  0  0  0  0  0  0  0  0
    3.0460   -8.7390   18.1180 H   0  0  0  0  0  0  0  0  0  0  0  0
    2.7340   -8.3640   15.6740 H   0  0  0  0  0  0  0  0  0  0  0  0
    2.5850   -6.0390   14.7810 H   0  0  0  0  0  0  0  0  0  0  0  0
    6.4320   -6.1000   16.0860 H   0  0  0  0  0  0  0  0  0  0  0  0
    5.6720   -7.2100   18.0890 H   0  0  0  0  0  0  0  0  0  0  0  0
    7.9110   -8.0970   17.7350 H   0  0  0  0  0  0  0  0  0  0  0  0
    8.0950   -7.4830   19.3920 H   0  0  0  0  0  0  0  0  0  0  0  0
   10.6490   -6.7690   18.6480 H   0  0  0  0  0  0  0  0  0  0  0  0
   11.8560   -4.7210   17.7490 H   0  0  0  0  0  0  0  0  0  0  0  0
   10.6440   -3.0650   16.3560 H   0  0  0  0  0  0  0  0  0  0  0  0
    8.1990   -3.3750   15.9050 H   0  0  0  0  0  0  0  0  0  0  0  0
    8.1300    0.6420    9.7890 H   0  0  0  0  0  0  0  0  0  0  0  0
    8.9950    2.1310   10.1720 H   0  0  0  0  0  0  0  0  0  0  0  0
    7.4020    4.4040    9.8590 H   0  0  0  0  0  0  0  0  0  0  0  0
    5.8410    4.5300    6.0030 H   0  0  0  0  0  0  0  0  0  0  0  0
    6.1720    2.0580    5.7020 H   0  0  0  0  0  0  0  0  0  0  0  0
    7.1460    0.7090    7.5790 H   0  0  0  0  0  0  0  0  0  0  0  0
    7.0790    2.7930   11.6390 H   0  0  0  0  0  0  0  0  0  0  0  0
  1  2  1  0  0  0  0
  1  4  1  0  0  0  0
  1 46  1  0  0  0  0
  1 47  1  0  0  0  0
  2 18  1  0  0  0  0
  2 40  1  0  0  0  0
  2 93  1  1  0  0  0
  3  7  2  0  0  0  0
  4  7  1  0  0  0  0
  4  8  1  0  0  0  0
  4 48  1  1  0  0  0
  5  7  1  0  0  0  0
  5 10  1  0  0  0  0
  5 49  1  0  0  0  0
  6 20  1  0  0  0  0
  6 50  1  0  0  0  0
  8 17  1  0  0  0  0
  8 19  1  0  0  0  0
  9 30  2  0  0  0  0
 10 13  1  0  0  0  0
 10 15  1  0  0  0  0
 10 16  1  0  0  0  0
 11 30  1  0  0  0  0
 11 31  1  0  0  0  0
 11 51  1  0  0  0  0
 12 32  1  0  0  0  0
 12 52  1  0  0  0  0
 13 53  1  0  0  0  0
 13 54  1  0  0  0  0
 13 55  1  0  0  0  0
 14 42  2  0  0  0  0
 14 43  1  0  0  0  0
 15 56  1  0  0  0  0
 15 57  1  0  0  0  0
 15 58  1  0  0  0  0
 16 59  1  0  0  0  0
 16 60  1  0  0  0  0
 16 61  1  0  0  0  0
 17 18  1  0  0  0  0
 17 62  1  0  0  0  0
 17 63  1  0  0  0  0
 18 64  1  0  0  0  0
 18 65  1  0  0  0  0
 19 20  1  0  0  0  0
 19 66  1  0  0  0  0
 19 67  1  0  0  0  0
 20 21  1  0  0  0  0
 20 68  1  6  0  0  0
 21 22  1  0  0  0  0
 21 69  1  0  0  0  0
 21 70  1  0  0  0  0
 22 23  1  0  0  0  0
 22 30  1  0  0  0  0
 22 71  1  1  0  0  0
 23 24  1  0  0  0  0
 23 72  1  0  0  0  0
 23 73  1  0  0  0  0
 24 25  2  0  0  0  0
 24 29  1  0  0  0  0
 25 26  1  0  0  0  0
 25 74  1  0  0  0  0
 26 27  2  0  0  0  0
 26 75  1  0  0  0  0
 27 28  1  0  0  0  0
 27 76  1  0  0  0  0
 28 29  2  0  0  0  0
 28 77  1  0  0  0  0
 29 78  1  0  0  0  0
 31 32  1  0  0  0  0
 31 39  1  0  0  0  0
 31 79  1  6  0  0  0
 32 33  1  0  0  0  0
 32 80  1  6  0  0  0
 33 34  1  0  0  0  0
 33 81  1  0  0  0  0
 33 82  1  0  0  0  0
 34 35  2  0  0  0  0
 34 39  1  0  0  0  0
 35 36  1  0  0  0  0
 35 83  1  0  0  0  0
 36 37  2  0  0  0  0
 36 84  1  0  0  0  0
 37 38  1  0  0  0  0
 37 85  1  0  0  0  0
 38 39  2  0  0  0  0
 38 86  1  0  0  0  0
 40 41  1  0  0  0  0
 40 87  1  0  0  0  0
 40 88  1  0  0  0  0
 41 42  1  0  0  0  0
 41 45  2  0  0  0  0
 42 89  1  0  0  0  0
 43 44  2  0  0  0  0
 43 90  1  0  0  0  0
 44 45  1  0  0  0  0
 44 91  1  0  0  0  0
 45 92  1  0  0  0  0
M  CHG  1   2   1
M  END
>  <charge>
1

>  <KI_NM>
0.12

>  <number_of_rotatable_bonds>
14

>  <lm5_entropy_jk>
41.86641068412992

>  <ligand_crystal_conformation>
B

$$$$
