4IVB
 OpenBabel11252210453D

 42 45  0  0  1  0  0  0  0  0999 V2000
  -10.4200   29.1070    1.9310 C   0  0  0  0  0  0  0  0  0  0  0  0
  -11.4990   29.5550    0.9270 C   0  0  1  0  0  0  0  0  0  0  0  0
  -10.8200   30.0130   -0.2410 O   0  0  0  0  0  0  0  0  0  0  0  0
  -12.5460   28.4800    0.6180 C   0  0  0  0  0  0  0  0  0  0  0  0
  -13.7710   28.7370   -0.0480 N   0  0  0  0  0  0  0  0  0  0  0  0
  -14.4250   27.5160    0.0360 C   0  0  0  0  0  0  0  0  0  0  0  0
  -13.5860   26.6440    0.6600 C   0  0  0  0  0  0  0  0  0  0  0  0
  -12.4260   27.2080    1.0440 N   0  0  0  0  0  0  0  0  0  0  0  0
  -13.9570   25.3050    0.8510 C   0  0  0  0  0  0  0  0  0  0  0  0
  -15.1530   24.8300    0.4150 N   0  0  0  0  0  0  0  0  0  0  0  0
  -15.9860   25.7030   -0.1940 C   0  0  0  0  0  0  0  0  0  0  0  0
  -15.6850   27.0410   -0.3980 C   0  0  0  0  0  0  0  0  0  0  0  0
  -16.8150   27.6400   -1.0780 C   0  0  0  0  0  0  0  0  0  0  0  0
  -17.7490   26.6300   -1.2820 C   0  0  0  0  0  0  0  0  0  0  0  0
  -17.2290   25.4460   -0.7220 N   0  0  0  0  0  0  0  0  0  0  0  0
  -14.1380   30.0260   -0.6710 C   0  0  1  0  0  0  0  0  0  0  0  0
  -14.3750   29.9740   -2.1950 C   0  0  0  0  0  0  0  0  0  0  0  0
  -14.6410   31.3980   -2.7910 C   0  0  0  0  0  0  0  0  0  0  0  0
  -15.7630   32.1670   -2.0240 C   0  0  1  0  0  0  0  0  0  0  0  0
  -15.4680   32.1940   -0.4960 C   0  0  0  0  0  0  0  0  0  0  0  0
  -15.2670   30.7520    0.0710 C   0  0  0  0  0  0  0  0  0  0  0  0
  -15.9230   33.5380   -2.5450 C   0  0  0  0  0  0  0  0  0  0  0  0
  -16.0350   34.6190   -2.9310 N   0  0  0  0  0  0  0  0  0  0  0  0
  -12.0590   30.3900    1.3750 H   0  0  0  0  0  0  0  0  0  0  0  0
  -13.2890   24.6070    1.3580 H   0  0  0  0  0  0  0  0  0  0  0  0
  -16.9630   28.6620   -1.4040 H   0  0  0  0  0  0  0  0  0  0  0  0
  -18.7180   26.6630   -1.7740 H   0  0  0  0  0  0  0  0  0  0  0  0
  -13.2640   30.6810   -0.5630 H   0  0  0  0  0  0  0  0  0  0  0  0
  -13.4910   29.5240   -2.6690 H   0  0  0  0  0  0  0  0  0  0  0  0
  -15.2010   29.2930   -2.4290 H   0  0  0  0  0  0  0  0  0  0  0  0
  -14.9100   31.3180   -3.8550 H   0  0  0  0  0  0  0  0  0  0  0  0
  -13.7170   31.9950   -2.7740 H   0  0  0  0  0  0  0  0  0  0  0  0
  -16.7270   31.6600   -2.1910 H   0  0  0  0  0  0  0  0  0  0  0  0
  -14.5690   32.8030   -0.3180 H   0  0  0  0  0  0  0  0  0  0  0  0
  -16.2820   32.7170    0.0320 H   0  0  0  0  0  0  0  0  0  0  0  0
  -16.1850   30.1590   -0.0080 H   0  0  0  0  0  0  0  0  0  0  0  0
  -15.0250   30.7780    1.1440 H   0  0  0  0  0  0  0  0  0  0  0  0
  -17.6940   24.5410   -0.6720 H   0  0  0  0  0  0  0  0  0  0  0  0
   -9.9300   29.5770   -0.2490 H   0  0  0  0  0  0  0  0  0  0  0  0
   -9.7180   29.9160    2.1650 H   0  0  0  0  0  0  0  0  0  0  0  0
  -10.8930   28.8070    2.8760 H   0  0  0  0  0  0  0  0  0  0  0  0
   -9.8670   28.2340    1.5640 H   0  0  0  0  0  0  0  0  0  0  0  0
  1  2  1  0  0  0  0
  2  4  1  0  0  0  0
  2  3  1  0  0  0  0
  2 24  1  1  0  0  0
  4  5  1  0  0  0  0
  4  8  2  0  0  0  0
  6  7  1  0  0  0  0
  6  5  1  0  0  0  0
  7  8  1  0  0  0  0
  9  7  2  0  0  0  0
  9 10  1  0  0  0  0
 11 12  1  0  0  0  0
 11 10  2  0  0  0  0
 11 15  1  0  0  0  0
 12 13  1  0  0  0  0
 12  6  2  0  0  0  0
 13 14  2  0  0  0  0
 14 15  1  0  0  0  0
 16 17  1  0  0  0  0
 16 21  1  0  0  0  0
 16  5  1  0  0  0  0
 16 28  1  1  0  0  0
 17 18  1  0  0  0  0
 18 19  1  0  0  0  0
 19 20  1  0  0  0  0
 19 22  1  0  0  0  0
 19 33  1  6  0  0  0
 20 21  1  0  0  0  0
 22 23  3  0  0  0  0
 25  9  1  0  0  0  0
 26 13  1  0  0  0  0
 27 14  1  0  0  0  0
 29 17  1  0  0  0  0
 30 17  1  0  0  0  0
 31 18  1  0  0  0  0
 32 18  1  0  0  0  0
 34 20  1  0  0  0  0
 35 20  1  0  0  0  0
 36 21  1  0  0  0  0
 37 21  1  0  0  0  0
 38 15  1  0  0  0  0
 39  3  1  0  0  0  0
 40  1  1  0  0  0  0
 41  1  1  0  0  0  0
 42  1  1  0  0  0  0
M  END
>  <charge>
0

>  <pKi>
8.72

>  <number_of_rotatable_bonds>
2

>  <lm5_entropy_jk>
24.701218558635038

$$$$
