5QCP
 OpenBabel11252210453D

 85 88  0  0  1  0  0  0  0  0999 V2000
   30.4890    5.8040   15.8630 N   0  0  0  0  0  0  0  0  0  0  0  0
   31.6660    6.0240   14.9990 C   0  0  1  0  0  0  0  0  0  0  0  0
   32.7400    6.8840   15.6940 C   0  0  0  0  0  0  0  0  0  0  0  0
   32.1800    8.1930   16.1910 C   0  0  0  0  0  0  0  0  0  0  0  0
   32.0010    8.3750   17.5740 C   0  0  0  0  0  0  0  0  0  0  0  0
   31.5350    9.6040   18.0450 C   0  0  0  0  0  0  0  0  0  0  0  0
   31.1460   10.6330   17.1550 C   0  0  0  0  0  0  0  0  0  0  0  0
   31.2920   10.4150   15.7920 C   0  0  0  0  0  0  0  0  0  0  0  0
   31.8330    9.2130   15.3030 C   0  0  0  0  0  0  0  0  0  0  0  0
   31.3730    9.9580   19.3600 O   0  0  0  0  0  0  0  0  0  0  0  0
   31.9070    9.1080   20.4220 C   0  0  0  0  0  0  0  0  0  0  0  0
   30.7610    8.5010   21.2350 C   0  0  0  0  0  0  0  0  0  0  0  0
   29.6540    7.8460   20.4020 C   0  0  0  0  0  0  0  0  0  0  0  0
   28.6960    8.9110   19.8600 C   0  0  0  0  0  0  0  0  0  0  0  0
   27.4140    8.3260   19.4810 O   0  0  0  0  0  0  0  0  0  0  0  0
   27.3710    7.4160   18.4660 C   0  0  0  0  0  0  0  0  0  0  0  0
   28.3730    7.2120   17.5100 C   0  0  0  0  0  0  0  0  0  0  0  0
   28.1710    6.2180   16.5450 C   0  0  0  0  0  0  0  0  0  0  0  0
   27.0480    5.4030   16.5390 C   0  0  0  0  0  0  0  0  0  0  0  0
   26.0440    5.6590   17.5070 C   0  0  0  0  0  0  0  0  0  0  0  0
   26.1660    6.6830   18.4440 C   0  0  0  0  0  0  0  0  0  0  0  0
   24.9830    4.7900   17.4200 O   0  0  0  0  0  0  0  0  0  0  0  0
   23.8550    5.0130   18.2990 C   0  0  0  0  0  0  0  0  0  0  0  0
   24.1980    4.7850   19.7790 C   0  0  0  0  0  0  0  0  0  0  0  0
   25.1160    4.0810   20.1320 O   0  0  0  0  0  0  0  0  0  0  0  0
   23.2840    5.5100   20.7130 C   0  0  0  0  0  0  0  0  0  0  0  0
   29.1850    6.1130   15.4400 C   0  0  0  0  0  0  0  0  0  0  0  0
   28.9130    6.2500   14.2570 O   0  0  0  0  0  0  0  0  0  0  0  0
   32.2300    4.6100   14.6570 C   0  0  2  0  0  0  0  0  0  0  0  0
   33.3120    4.7150   13.7140 O   0  0  0  0  0  0  0  0  0  0  0  0
   31.1760    3.7790   13.9000 C   0  0  0  0  0  0  0  0  0  0  0  0
   31.8040    2.4580   13.4690 N   0  3  0  0  0  0  0  0  0  0  0  0
   30.9670    1.7460   12.4010 C   0  0  0  0  0  0  0  0  0  0  0  0
   30.8580    2.5260   11.1130 C   0  0  0  0  0  0  0  0  0  0  0  0
   31.9880    3.0770   10.4950 C   0  0  0  0  0  0  0  0  0  0  0  0
   31.8980    3.7060    9.2460 C   0  0  0  0  0  0  0  0  0  0  0  0
   30.6400    3.8110    8.6310 C   0  0  0  0  0  0  0  0  0  0  0  0
   29.5060    3.2850    9.2530 C   0  0  0  0  0  0  0  0  0  0  0  0
   29.6070    2.6390   10.4900 C   0  0  0  0  0  0  0  0  0  0  0  0
   33.1460    4.2540    8.5760 C   0  0  0  0  0  0  0  0  0  0  0  0
   33.6890    5.4390    9.3880 C   0  0  0  0  0  0  0  0  0  0  0  0
   34.2110    3.1590    8.4090 C   0  0  0  0  0  0  0  0  0  0  0  0
   30.7190    5.7330   16.8740 H   0  0  0  0  0  0  0  0  0  0  0  0
   31.3650    6.5350   14.0500 H   0  0  0  0  0  0  0  0  0  0  0  0
   33.5620    7.0790   14.9560 H   0  0  0  0  0  0  0  0  0  0  0  0
   33.1870    6.3040   16.5390 H   0  0  0  0  0  0  0  0  0  0  0  0
   32.2280    7.5530   18.2400 H   0  0  0  0  0  0  0  0  0  0  0  0
   30.7690   11.5780   17.5470 H   0  0  0  0  0  0  0  0  0  0  0  0
   30.9840   11.1890   15.0860 H   0  0  0  0  0  0  0  0  0  0  0  0
   31.9990    9.0850   14.2380 H   0  0  0  0  0  0  0  0  0  0  0  0
   32.5810    8.3320   20.0130 H   0  0  0  0  0  0  0  0  0  0  0  0
   32.4740    9.8600   21.0250 H   0  0  0  0  0  0  0  0  0  0  0  0
   30.3000    9.3010   21.8620 H   0  0  0  0  0  0  0  0  0  0  0  0
   31.2010    7.7230   21.9120 H   0  0  0  0  0  0  0  0  0  0  0  0
   30.1090    7.2610   19.5670 H   0  0  0  0  0  0  0  0  0  0  0  0
   29.0860    7.1400   21.0570 H   0  0  0  0  0  0  0  0  0  0  0  0
   28.3490    9.6050   20.6630 H   0  0  0  0  0  0  0  0  0  0  0  0
   29.1260    9.4630   18.9980 H   0  0  0  0  0  0  0  0  0  0  0  0
   29.2970    7.7910   17.5100 H   0  0  0  0  0  0  0  0  0  0  0  0
   26.9400    4.5740   15.8420 H   0  0  0  0  0  0  0  0  0  0  0  0
   25.3850    6.9420   19.1580 H   0  0  0  0  0  0  0  0  0  0  0  0
   23.1290    4.2350   17.9450 H   0  0  0  0  0  0  0  0  0  0  0  0
   23.4300    6.0300   18.1160 H   0  0  0  0  0  0  0  0  0  0  0  0
   32.6020    4.0990   15.5730 H   0  0  0  0  0  0  0  0  0  0  0  0
   30.8440    4.3350   12.9780 H   0  0  0  0  0  0  0  0  0  0  0  0
   30.2900    3.5710   14.5670 H   0  0  0  0  0  0  0  0  0  0  0  0
   32.7850    2.6610   13.0780 H   0  0  0  0  0  0  0  0  0  0  0  0
   31.8820    1.8430   14.3310 H   0  0  0  0  0  0  0  0  0  0  0  0
   31.4530    0.7480   12.1860 H   0  0  0  0  0  0  0  0  0  0  0  0
   29.9410    1.5540   12.8350 H   0  0  0  0  0  0  0  0  0  0  0  0
   32.9550    3.0450   10.9860 H   0  0  0  0  0  0  0  0  0  0  0  0
   30.5440    4.3150    7.6630 H   0  0  0  0  0  0  0  0  0  0  0  0
   28.5260    3.3690    8.7700 H   0  0  0  0  0  0  0  0  0  0  0  0
   28.7150    2.2190   10.9620 H   0  0  0  0  0  0  0  0  0  0  0  0
   32.8750    4.6340    7.5540 H   0  0  0  0  0  0  0  0  0  0  0  0
   34.1900    4.8740   14.2550 H   0  0  0  0  0  0  0  0  0  0  0  0
   33.8290    2.3370    7.7670 H   0  0  0  0  0  0  0  0  0  0  0  0
   35.1160    3.5890    7.9180 H   0  0  0  0  0  0  0  0  0  0  0  0
   34.5150    2.7430    9.3930 H   0  0  0  0  0  0  0  0  0  0  0  0
   32.9980    6.3080    9.2940 H   0  0  0  0  0  0  0  0  0  0  0  0
   34.6900    5.7330    9.0050 H   0  0  0  0  0  0  0  0  0  0  0  0
   33.7860    5.1720   10.4600 H   0  0  0  0  0  0  0  0  0  0  0  0
   23.4810    5.2540   21.7810 H   0  0  0  0  0  0  0  0  0  0  0  0
   22.2130    5.2650   20.4870 H   0  0  0  0  0  0  0  0  0  0  0  0
   23.3910    6.6200   20.6010 H   0  0  0  0  0  0  0  0  0  0  0  0
  1  2  1  0  0  0  0
  1 27  1  0  0  0  0
  2  3  1  0  0  0  0
  2 29  1  0  0  0  0
  2 44  1  6  0  0  0
  3  4  1  0  0  0  0
  4  5  2  0  0  0  0
  4  9  1  0  0  0  0
  5  6  1  0  0  0  0
  6  7  2  0  0  0  0
  6 10  1  0  0  0  0
  7  8  1  0  0  0  0
  8  9  2  0  0  0  0
 10 11  1  0  0  0  0
 11 12  1  0  0  0  0
 12 13  1  0  0  0  0
 13 14  1  0  0  0  0
 14 15  1  0  0  0  0
 15 16  1  0  0  0  0
 16 17  2  0  0  0  0
 16 21  1  0  0  0  0
 17 18  1  0  0  0  0
 18 19  2  0  0  0  0
 18 27  1  0  0  0  0
 19 20  1  0  0  0  0
 20 21  2  0  0  0  0
 20 22  1  0  0  0  0
 22 23  1  0  0  0  0
 23 24  1  0  0  0  0
 24 25  2  0  0  0  0
 24 26  1  0  0  0  0
 27 28  2  0  0  0  0
 29 30  1  0  0  0  0
 29 31  1  0  0  0  0
 29 64  1  1  0  0  0
 31 32  1  0  0  0  0
 32 33  1  0  0  0  0
 33 34  1  0  0  0  0
 34 35  2  0  0  0  0
 34 39  1  0  0  0  0
 35 36  1  0  0  0  0
 36 37  2  0  0  0  0
 36 40  1  0  0  0  0
 37 38  1  0  0  0  0
 38 39  2  0  0  0  0
 40 41  1  0  0  0  0
 40 42  1  0  0  0  0
 43  1  1  0  0  0  0
 45  3  1  0  0  0  0
 46  3  1  0  0  0  0
 47  5  1  0  0  0  0
 48  7  1  0  0  0  0
 49  8  1  0  0  0  0
 50  9  1  0  0  0  0
 51 11  1  0  0  0  0
 52 11  1  0  0  0  0
 53 12  1  0  0  0  0
 54 12  1  0  0  0  0
 55 13  1  0  0  0  0
 56 13  1  0  0  0  0
 57 14  1  0  0  0  0
 58 14  1  0  0  0  0
 59 17  1  0  0  0  0
 60 19  1  0  0  0  0
 61 21  1  0  0  0  0
 62 23  1  0  0  0  0
 63 23  1  0  0  0  0
 65 31  1  0  0  0  0
 66 31  1  0  0  0  0
 67 32  1  0  0  0  0
 68 32  1  0  0  0  0
 69 33  1  0  0  0  0
 70 33  1  0  0  0  0
 71 35  1  0  0  0  0
 72 37  1  0  0  0  0
 73 38  1  0  0  0  0
 74 39  1  0  0  0  0
 75 40  1  0  0  0  0
 76 30  1  0  0  0  0
 77 42  1  0  0  0  0
 78 42  1  0  0  0  0
 79 42  1  0  0  0  0
 80 41  1  0  0  0  0
 81 41  1  0  0  0  0
 82 41  1  0  0  0  0
 83 26  1  0  0  0  0
 84 26  1  0  0  0  0
 85 26  1  0  0  0  0
M  CHG  1  32   1
M  END
>  <IC50_NM>
34

>  <number_of_rotatable_bonds>
9

>  <lm5_entropy_jk>
41.486223211327754

>  <charge>
1

>  <old_name>
BACE_16

>  <xray_resolution>
2.45

$$$$
