4FK6
 OpenBabel11252210453D

 46 50  0  0  1  0  0  0  0  0999 V2000
   -9.3140   29.6530    3.2520 C   0  0  0  0  0  0  0  0  0  0  0  0
  -10.3550   28.5690    2.6700 S   0  0  0  0  0  0  0  0  0  0  0  0
  -10.5220   29.3460    1.2640 N   0  0  0  0  0  0  0  0  0  0  0  0
  -11.8730   29.7040    0.6710 C   0  0  0  0  0  0  0  0  0  0  0  0
  -12.8370   28.5680    0.4530 C   0  0  0  0  0  0  0  0  0  0  0  0
  -14.0800   28.7630   -0.1860 N   0  0  0  0  0  0  0  0  0  0  0  0
  -14.5080   30.0960   -0.7060 C   0  0  1  0  0  0  0  0  0  0  0  0
  -14.0670   30.3960   -2.1640 C   0  0  1  0  0  0  0  0  0  0  0  0
  -15.2770   29.9560   -2.9610 C   0  0  0  0  0  0  0  0  0  0  0  0
  -16.2750   30.8230   -2.1910 C   0  0  1  0  0  0  0  0  0  0  0  0
  -16.0030   30.4340   -0.7150 C   0  0  0  0  0  0  0  0  0  0  0  0
  -14.1260   31.9280   -2.4010 C   0  0  0  0  0  0  0  0  0  0  0  0
  -15.6540   32.2170   -2.4250 C   0  0  0  0  0  0  0  0  0  0  0  0
  -14.6680   27.5030   -0.0840 C   0  0  0  0  0  0  0  0  0  0  0  0
  -15.8790   26.9160   -0.5450 C   0  0  0  0  0  0  0  0  0  0  0  0
  -17.0130   27.3630   -1.3420 C   0  0  0  0  0  0  0  0  0  0  0  0
  -17.8800   26.2930   -1.4720 C   0  0  0  0  0  0  0  0  0  0  0  0
  -17.3130   25.2100   -0.7890 N   0  0  0  0  0  0  0  0  0  0  0  0
  -16.1070   25.5810   -0.2500 C   0  0  0  0  0  0  0  0  0  0  0  0
  -15.2420   24.7990    0.4300 N   0  0  0  0  0  0  0  0  0  0  0  0
  -14.0790   25.3590    0.8430 C   0  0  0  0  0  0  0  0  0  0  0  0
  -13.7810   26.7040    0.5840 C   0  0  0  0  0  0  0  0  0  0  0  0
  -12.6420   27.3330    0.9320 N   0  0  0  0  0  0  0  0  0  0  0  0
   -9.5210   27.3950    2.6230 O   0  0  0  0  0  0  0  0  0  0  0  0
  -11.3690   28.8440    3.6210 O   0  0  0  0  0  0  0  0  0  0  0  0
  -11.7570   30.1970   -0.2980 H   0  0  0  0  0  0  0  0  0  0  0  0
  -12.4160   30.4070    1.3130 H   0  0  0  0  0  0  0  0  0  0  0  0
  -14.0500   30.8570   -0.0640 H   0  0  0  0  0  0  0  0  0  0  0  0
  -13.1280   29.9080   -2.4630 H   0  0  0  0  0  0  0  0  0  0  0  0
  -15.4540   28.8780   -2.8780 H   0  0  0  0  0  0  0  0  0  0  0  0
  -15.2140   30.2230   -4.0230 H   0  0  0  0  0  0  0  0  0  0  0  0
  -17.3300   30.7310   -2.5060 H   0  0  0  0  0  0  0  0  0  0  0  0
  -16.5980   29.6030   -0.3430 H   0  0  0  0  0  0  0  0  0  0  0  0
  -16.2110   31.2820   -0.0530 H   0  0  0  0  0  0  0  0  0  0  0  0
  -13.6600   32.1980   -3.3590 H   0  0  0  0  0  0  0  0  0  0  0  0
  -13.6310   32.4890   -1.6010 H   0  0  0  0  0  0  0  0  0  0  0  0
  -15.9600   32.6180   -3.4010 H   0  0  0  0  0  0  0  0  0  0  0  0
  -15.9710   32.9440   -1.6630 H   0  0  0  0  0  0  0  0  0  0  0  0
  -17.1970   28.3030   -1.8410 H   0  0  0  0  0  0  0  0  0  0  0  0
  -18.8190   26.2150   -2.0110 H   0  0  0  0  0  0  0  0  0  0  0  0
  -13.3780   24.7250    1.3870 H   0  0  0  0  0  0  0  0  0  0  0  0
  -17.7320   24.2890   -0.6820 H   0  0  0  0  0  0  0  0  0  0  0  0
   -9.9980   30.1510    1.5770 H   0  0  0  0  0  0  0  0  0  0  0  0
   -9.1150   29.1070    4.1690 H   0  0  0  0  0  0  0  0  0  0  0  0
   -9.9530   30.5210    3.3970 H   0  0  0  0  0  0  0  0  0  0  0  0
   -8.5160   29.6550    2.5350 H   0  0  0  0  0  0  0  0  0  0  0  0
  1  2  1  0  0  0  0
  3  2  1  0  0  0  0
  4  5  1  0  0  0  0
  4  3  1  0  0  0  0
  5 23  2  0  0  0  0
  5  6  1  0  0  0  0
  7  8  1  0  0  0  0
  7  6  1  0  0  0  0
  7 28  1  1  0  0  0
  8 29  1  6  0  0  0
  9 10  1  0  0  0  0
  9  8  1  0  0  0  0
 10 11  1  0  0  0  0
 10 13  1  0  0  0  0
 10 32  1  6  0  0  0
 11  7  1  0  0  0  0
 12 13  1  0  0  0  0
 12  8  1  0  0  0  0
 14 15  2  0  0  0  0
 14 22  1  0  0  0  0
 14  6  1  0  0  0  0
 15 16  1  0  0  0  0
 15 19  1  0  0  0  0
 16 17  2  0  0  0  0
 17 18  1  0  0  0  0
 19 18  1  0  0  0  0
 19 20  2  0  0  0  0
 21 22  2  0  0  0  0
 21 20  1  0  0  0  0
 22 23  1  0  0  0  0
 24  2  2  0  0  0  0
 25  2  2  0  0  0  0
 26  4  1  0  0  0  0
 27  4  1  0  0  0  0
 30  9  1  0  0  0  0
 31  9  1  0  0  0  0
 33 11  1  0  0  0  0
 34 11  1  0  0  0  0
 35 12  1  0  0  0  0
 36 12  1  0  0  0  0
 37 13  1  0  0  0  0
 38 13  1  0  0  0  0
 39 16  1  0  0  0  0
 40 17  1  0  0  0  0
 41 21  1  0  0  0  0
 42 18  1  0  0  0  0
 43  3  1  0  0  0  0
 44  1  1  0  0  0  0
 45  1  1  0  0  0  0
 46  1  1  0  0  0  0
M  END
>  <charge>
0

>  <pKi>
9.7

>  <number_of_rotatable_bonds>
4

>  <lm5_entropy_jk>
31.79286729643965

$$$$
