5mo2_new.pdb
 OpenBabel11252210453D

 23 23  0  0  0  0  0  0  0  0999 V2000
   -1.9750   14.5060   16.2140 N   0  0  0  0  0  0  0  0  0  0  0  0
   -1.6050   12.4840   14.9230 N   0  3  0  0  0  0  0  0  0  0  0  0
   -2.6760   14.2880   13.8900 N   0  0  0  0  0  0  0  0  0  0  0  0
   -1.0870   16.3330   18.3180 C   0  0  0  0  0  0  0  0  0  0  0  0
   -2.3780   16.6310   17.5610 C   0  0  0  0  0  0  0  0  0  0  0  0
   -2.3970   15.9480   16.1880 C   0  0  0  0  0  0  0  0  0  0  0  0
   -0.9820   14.0190   17.2350 C   0  0  0  0  0  0  0  0  0  0  0  0
   -0.9610   14.8250   18.5400 C   0  0  0  0  0  0  0  0  0  0  0  0
   -2.1160   13.7700   15.0520 C   0  0  0  0  0  0  0  0  0  0  0  0
   -1.1040   16.8580   19.3070 H   0  0  0  0  0  0  0  0  0  0  0  0
   -0.2180   16.7250   17.7410 H   0  0  0  0  0  0  0  0  0  0  0  0
   -3.2600   16.3110   18.1610 H   0  0  0  0  0  0  0  0  0  0  0  0
   -2.4700   17.7390   17.3830 H   0  0  0  0  0  0  0  0  0  0  0  0
   -3.4580   15.9800   15.8150 H   0  0  0  0  0  0  0  0  0  0  0  0
   -1.7220   16.5130   15.4890 H   0  0  0  0  0  0  0  0  0  0  0  0
    0.0340   14.0430   16.7650 H   0  0  0  0  0  0  0  0  0  0  0  0
   -1.2590   12.9580   17.4960 H   0  0  0  0  0  0  0  0  0  0  0  0
    0.0070   14.6040   19.0630 H   0  0  0  0  0  0  0  0  0  0  0  0
   -1.7970   14.4790   19.1960 H   0  0  0  0  0  0  0  0  0  0  0  0
   -2.0740   11.8500   14.2300 H   0  0  0  0  0  0  0  0  0  0  0  0
   -1.2180   11.9780   15.7420 H   0  0  0  0  0  0  0  0  0  0  0  0
   -3.1430   15.2130   13.8840 H   0  0  0  0  0  0  0  0  0  0  0  0
   -3.0660   13.5940   13.1990 H   0  0  0  0  0  0  0  0  0  0  0  0
  1  6  1  0  0  0  0
  1  7  1  0  0  0  0
  1  9  1  0  0  0  0
  2  9  2  0  0  0  0
  2 20  1  0  0  0  0
  2 21  1  0  0  0  0
  3  9  1  0  0  0  0
  3 22  1  0  0  0  0
  3 23  1  0  0  0  0
  4  5  1  0  0  0  0
  4  8  1  0  0  0  0
  4 10  1  0  0  0  0
  4 11  1  0  0  0  0
  5  6  1  0  0  0  0
  5 12  1  0  0  0  0
  5 13  1  0  0  0  0
  6 14  1  0  0  0  0
  6 15  1  0  0  0  0
  7  8  1  0  0  0  0
  7 16  1  0  0  0  0
  7 17  1  0  0  0  0
  8 18  1  0  0  0  0
  8 19  1  0  0  0  0
M  CHG  1   2   1
M  END
>  <number_of_rotatable_bonds>
1

>  <lm5_entropy_jk>
13.765940156892343

>  <deltaG_kcalmol>
-5.25

>  <charge>
1

$$$$
