4IVC
 OpenBabel11252210453D

 45 48  0  0  1  0  0  0  0  0999 V2000
  -10.5090   29.0730    2.0840 C   0  0  0  0  0  0  0  0  0  0  0  0
  -11.4980   29.5120    1.0130 C   0  0  1  0  0  0  0  0  0  0  0  0
  -10.8660   29.9190   -0.2130 O   0  0  0  0  0  0  0  0  0  0  0  0
  -12.5160   28.4360    0.6930 C   0  0  0  0  0  0  0  0  0  0  0  0
  -13.7370   28.6910   -0.0220 N   0  0  0  0  0  0  0  0  0  0  0  0
  -14.4630   27.4920    0.0020 C   0  0  0  0  0  0  0  0  0  0  0  0
  -13.6160   26.5410    0.6810 C   0  0  0  0  0  0  0  0  0  0  0  0
  -12.4350   27.1600    1.0970 N   0  0  0  0  0  0  0  0  0  0  0  0
  -13.9950   25.1730    0.8590 C   0  0  0  0  0  0  0  0  0  0  0  0
  -15.1530   24.7050    0.4040 N   0  0  0  0  0  0  0  0  0  0  0  0
  -15.9810   25.6240   -0.2290 C   0  0  0  0  0  0  0  0  0  0  0  0
  -15.7200   27.0280   -0.4580 C   0  0  0  0  0  0  0  0  0  0  0  0
  -16.8730   27.5460   -1.1250 C   0  0  0  0  0  0  0  0  0  0  0  0
  -17.7730   26.5010   -1.3030 C   0  0  0  0  0  0  0  0  0  0  0  0
  -17.2340   25.3160   -0.7700 N   0  0  0  0  0  0  0  0  0  0  0  0
  -14.0650   30.0180   -0.6130 C   0  0  1  0  0  0  0  0  0  0  0  0
  -14.4240   29.9680   -2.1110 C   0  0  0  0  0  0  0  0  0  0  0  0
  -14.6620   31.3970   -2.6360 C   0  0  0  0  0  0  0  0  0  0  0  0
  -15.7240   32.1510   -1.8030 C   0  0  1  0  0  0  0  0  0  0  0  0
  -15.3450   32.1460   -0.3070 C   0  0  0  0  0  0  0  0  0  0  0  0
  -15.1780   30.7070    0.2020 C   0  0  0  0  0  0  0  0  0  0  0  0
  -15.8590   33.6050   -2.3250 C   0  0  0  0  0  0  0  0  0  0  0  0
  -16.8580   34.3790   -1.6090 C   0  0  0  0  0  0  0  0  0  0  0  0
  -17.6350   35.0260   -1.0450 N   0  0  0  0  0  0  0  0  0  0  0  0
  -12.0300   30.4460    1.3360 H   0  0  0  0  0  0  0  0  0  0  0  0
  -13.3230   24.4820    1.3890 H   0  0  0  0  0  0  0  0  0  0  0  0
  -17.0460   28.5560   -1.4500 H   0  0  0  0  0  0  0  0  0  0  0  0
  -18.7360   26.5160   -1.7900 H   0  0  0  0  0  0  0  0  0  0  0  0
  -13.1280   30.6440   -0.5310 H   0  0  0  0  0  0  0  0  0  0  0  0
  -13.5920   29.5090   -2.6910 H   0  0  0  0  0  0  0  0  0  0  0  0
  -15.3470   29.3640   -2.2810 H   0  0  0  0  0  0  0  0  0  0  0  0
  -13.7070   31.9710   -2.6280 H   0  0  0  0  0  0  0  0  0  0  0  0
  -15.0100   31.3310   -3.6940 H   0  0  0  0  0  0  0  0  0  0  0  0
  -16.7120   31.6400   -1.9370 H   0  0  0  0  0  0  0  0  0  0  0  0
  -14.3900   32.7060   -0.1800 H   0  0  0  0  0  0  0  0  0  0  0  0
  -16.1400   32.6600    0.2800 H   0  0  0  0  0  0  0  0  0  0  0  0
  -14.9120   30.7160    1.2830 H   0  0  0  0  0  0  0  0  0  0  0  0
  -16.1340   30.1470    0.0710 H   0  0  0  0  0  0  0  0  0  0  0  0
  -14.8720   34.1310   -2.2430 H   0  0  0  0  0  0  0  0  0  0  0  0
  -16.1390   33.5690   -3.4150 H   0  0  0  0  0  0  0  0  0  0  0  0
  -17.7310   24.4230   -0.6930 H   0  0  0  0  0  0  0  0  0  0  0  0
   -9.9230   29.5160   -0.2860 H   0  0  0  0  0  0  0  0  0  0  0  0
   -9.8280   29.9170    2.3480 H   0  0  0  0  0  0  0  0  0  0  0  0
   -9.8990   28.2000    1.7580 H   0  0  0  0  0  0  0  0  0  0  0  0
  -11.0530   28.7790    3.0160 H   0  0  0  0  0  0  0  0  0  0  0  0
  1  2  1  0  0  0  0
  2  4  1  0  0  0  0
  2  3  1  0  0  0  0
  2 25  1  1  0  0  0
  4  5  1  0  0  0  0
  4  8  2  0  0  0  0
  6  7  1  0  0  0  0
  6  5  1  0  0  0  0
  7  8  1  0  0  0  0
  9  7  2  0  0  0  0
  9 10  1  0  0  0  0
 11 12  1  0  0  0  0
 11 10  2  0  0  0  0
 11 15  1  0  0  0  0
 12 13  1  0  0  0  0
 12  6  2  0  0  0  0
 13 14  2  0  0  0  0
 14 15  1  0  0  0  0
 16 17  1  0  0  0  0
 16 21  1  0  0  0  0
 16  5  1  0  0  0  0
 16 29  1  1  0  0  0
 17 18  1  0  0  0  0
 18 19  1  0  0  0  0
 19 20  1  0  0  0  0
 19 22  1  0  0  0  0
 19 34  1  6  0  0  0
 20 21  1  0  0  0  0
 22 23  1  0  0  0  0
 23 24  3  0  0  0  0
 26  9  1  0  0  0  0
 27 13  1  0  0  0  0
 28 14  1  0  0  0  0
 30 17  1  0  0  0  0
 31 17  1  0  0  0  0
 32 18  1  0  0  0  0
 33 18  1  0  0  0  0
 35 20  1  0  0  0  0
 36 20  1  0  0  0  0
 37 21  1  0  0  0  0
 38 21  1  0  0  0  0
 39 22  1  0  0  0  0
 40 22  1  0  0  0  0
 41 15  1  0  0  0  0
 42  3  1  0  0  0  0
 43  1  1  0  0  0  0
 44  1  1  0  0  0  0
 45  1  1  0  0  0  0
M  END
>  <charge>
0

>  <pKi>
10

>  <number_of_rotatable_bonds>
3

>  <lm5_entropy_jk>
27.567193669021417

$$$$
