3QTQ
 OpenBabel11252210453D

 30 31  0  0  1  0  0  0  0  0999 V2000
   65.8440  154.2690  -50.2650 N   0  0  0  0  0  0  0  0  0  0  0  0
   67.2300  153.3460  -51.9050 N   0  0  0  0  0  0  0  0  0  0  0  0
   70.7490  149.9360  -47.2740 N   0  0  0  0  0  0  0  0  0  0  0  0
   64.6300  154.9640  -48.3880 N   0  0  0  0  0  0  0  0  0  0  0  0
   66.8360  153.4210  -50.6260 C   0  0  0  0  0  0  0  0  0  0  0  0
   67.3640  152.6630  -49.5730 C   0  0  0  0  0  0  0  0  0  0  0  0
   68.3760  151.7080  -49.6870 C   0  0  0  0  0  0  0  0  0  0  0  0
   68.9090  150.8800  -48.5480 C   0  0  0  0  0  0  0  0  0  0  0  0
   70.3050  150.7160  -48.3340 C   0  0  0  0  0  0  0  0  0  0  0  0
   69.8810  149.2980  -46.3970 C   0  0  0  0  0  0  0  0  0  0  0  0
   68.4870  149.4250  -46.5700 C   0  0  0  0  0  0  0  0  0  0  0  0
   68.0080  150.2190  -47.6540 C   0  0  0  0  0  0  0  0  0  0  0  0
   65.5930  154.1970  -48.9530 C   0  0  0  0  0  0  0  0  0  0  0  0
   64.3370  154.8520  -46.9630 C   0  0  0  0  0  0  0  0  0  0  0  0
   62.9710  154.2690  -46.7500 C   0  0  0  0  0  0  0  0  0  0  0  0
   62.7460  152.8260  -46.6960 C   0  0  0  0  0  0  0  0  0  0  0  0
   68.9380  151.4610  -50.8880 O   0  0  0  0  0  0  0  0  0  0  0  0
   66.5700  153.0750  -48.0890 S   0  0  0  0  0  0  0  0  0  0  0  0
   66.8050  153.9170  -52.5850 H   0  0  0  0  0  0  0  0  0  0  0  0
   67.9450  152.7200  -52.1640 H   0  0  0  0  0  0  0  0  0  0  0  0
   70.9840  151.1740  -48.9620 H   0  0  0  0  0  0  0  0  0  0  0  0
   70.2560  148.7320  -45.6200 H   0  0  0  0  0  0  0  0  0  0  0  0
   67.8300  148.9550  -45.9280 H   0  0  0  0  0  0  0  0  0  0  0  0
   66.9910  150.3190  -47.7960 H   0  0  0  0  0  0  0  0  0  0  0  0
   64.1240  155.6010  -48.9430 H   0  0  0  0  0  0  0  0  0  0  0  0
   64.3780  155.8240  -46.5180 H   0  0  0  0  0  0  0  0  0  0  0  0
   65.0620  154.2080  -46.5110 H   0  0  0  0  0  0  0  0  0  0  0  0
   61.7404  152.4367  -46.5393 H   0  0  0  0  0  0  0  0  0  0  0  0
   63.5840  152.1391  -46.8125 H   0  0  0  0  0  0  0  0  0  0  0  0
   62.1210  154.9420  -46.6320 H   0  0  0  0  0  0  0  0  0  0  0  0
  1  5  1  0  0  0  0
  1 13  2  0  0  0  0
  2  5  1  0  0  0  0
  2 19  1  0  0  0  0
  2 20  1  0  0  0  0
  3  9  2  0  0  0  0
  3 10  1  0  0  0  0
  4 13  1  0  0  0  0
  4 14  1  0  0  0  0
  4 25  1  0  0  0  0
  5  6  2  0  0  0  0
  6 18  1  0  0  0  0
  7  6  1  0  0  0  0
  7  8  1  0  0  0  0
  7 17  2  0  0  0  0
  8  9  1  0  0  0  0
  8 12  2  0  0  0  0
  9 21  1  0  0  0  0
 10 11  2  0  0  0  0
 10 22  1  0  0  0  0
 11 12  1  0  0  0  0
 11 23  1  0  0  0  0
 12 24  1  0  0  0  0
 13 18  1  0  0  0  0
 14 15  1  0  0  0  0
 14 26  1  0  0  0  0
 14 27  1  0  0  0  0
 15 16  2  0  0  0  0
 15 30  1  0  0  0  0
 16 28  1  0  0  0  0
 16 29  1  0  0  0  0
M  END
>  <lm5_entropy_jk>
31.50116356131297

>  <number_of_rotatable_bonds>
5

>  <IC50_NM>
3100

>  <charge>
0

$$$$
