3QTR
 OpenBabel11252210453D

 34 36  0  0  1  0  0  0  0  0999 V2000
   65.3890  154.3140  -50.4040 N   0  0  0  0  0  0  0  0  0  0  0  0
   66.9990  153.6000  -51.9300 N   0  0  0  0  0  0  0  0  0  0  0  0
   63.8970  154.8240  -48.6840 N   0  0  0  0  0  0  0  0  0  0  0  0
   66.4800  153.5710  -50.6980 C   0  0  0  0  0  0  0  0  0  0  0  0
   66.9650  152.8000  -49.6310 C   0  0  0  0  0  0  0  0  0  0  0  0
   68.0780  151.9190  -49.6410 C   0  0  0  0  0  0  0  0  0  0  0  0
   68.5340  151.0860  -48.4570 C   0  0  0  0  0  0  0  0  0  0  0  0
   67.5770  150.3010  -47.6340 C   0  0  0  0  0  0  0  0  0  0  0  0
   68.0450  149.5360  -46.5340 C   0  0  0  0  0  0  0  0  0  0  0  0
   69.4140  149.4850  -46.1730 C   0  0  0  0  0  0  0  0  0  0  0  0
   70.3950  150.2290  -46.9450 C   0  0  0  0  0  0  0  0  0  0  0  0
   69.9590  151.0240  -48.0810 C   0  0  0  0  0  0  0  0  0  0  0  0
   65.0030  154.1480  -49.1440 C   0  0  0  0  0  0  0  0  0  0  0  0
   63.2610  154.8060  -47.4600 C   0  0  0  0  0  0  0  0  0  0  0  0
   62.1040  155.7020  -47.2980 C   0  0  0  0  0  0  0  0  0  0  0  0
   61.3800  155.7460  -46.0500 C   0  0  0  0  0  0  0  0  0  0  0  0
   61.7760  154.9000  -44.9300 C   0  0  0  0  0  0  0  0  0  0  0  0
   62.9110  153.9920  -45.0420 C   0  0  0  0  0  0  0  0  0  0  0  0
   63.6490  153.9400  -46.2850 C   0  0  0  0  0  0  0  0  0  0  0  0
   68.8040  151.7740  -50.7730 O   0  0  0  0  0  0  0  0  0  0  0  0
   65.9810  153.0710  -48.2580 S   0  0  0  0  0  0  0  0  0  0  0  0
   66.5940  154.1720  -52.6210 H   0  0  0  0  0  0  0  0  0  0  0  0
   67.7860  153.0490  -52.1460 H   0  0  0  0  0  0  0  0  0  0  0  0
   66.5710  150.3120  -47.8630 H   0  0  0  0  0  0  0  0  0  0  0  0
   67.3630  148.9970  -45.9770 H   0  0  0  0  0  0  0  0  0  0  0  0
   69.7140  148.9200  -45.3630 H   0  0  0  0  0  0  0  0  0  0  0  0
   71.3940  150.1930  -46.6880 H   0  0  0  0  0  0  0  0  0  0  0  0
   70.6550  151.5510  -48.6310 H   0  0  0  0  0  0  0  0  0  0  0  0
   63.4870  155.4270  -49.3450 H   0  0  0  0  0  0  0  0  0  0  0  0
   61.8080  156.3030  -48.0830 H   0  0  0  0  0  0  0  0  0  0  0  0
   60.5740  156.3830  -45.9490 H   0  0  0  0  0  0  0  0  0  0  0  0
   61.2450  154.9450  -44.0460 H   0  0  0  0  0  0  0  0  0  0  0  0
   63.1840  153.3950  -44.2460 H   0  0  0  0  0  0  0  0  0  0  0  0
   64.4540  153.3000  -46.3700 H   0  0  0  0  0  0  0  0  0  0  0  0
  1  4  1  0  0  0  0
  1 13  2  0  0  0  0
  2  4  1  0  0  0  0
  2 22  1  0  0  0  0
  2 23  1  0  0  0  0
  3 13  1  0  0  0  0
  3 14  1  0  0  0  0
  3 29  1  0  0  0  0
  4  5  2  0  0  0  0
  5 21  1  0  0  0  0
  6  5  1  0  0  0  0
  6  7  1  0  0  0  0
  6 20  2  0  0  0  0
  7  8  2  0  0  0  0
  7 12  1  0  0  0  0
  8  9  1  0  0  0  0
  8 24  1  0  0  0  0
  9 10  2  0  0  0  0
  9 25  1  0  0  0  0
 10 11  1  0  0  0  0
 10 26  1  0  0  0  0
 11 12  2  0  0  0  0
 11 27  1  0  0  0  0
 12 28  1  0  0  0  0
 13 21  1  0  0  0  0
 14 15  2  0  0  0  0
 14 19  1  0  0  0  0
 15 16  1  0  0  0  0
 15 30  1  0  0  0  0
 16 17  2  0  0  0  0
 16 31  1  0  0  0  0
 17 18  1  0  0  0  0
 17 32  1  0  0  0  0
 18 19  2  0  0  0  0
 18 33  1  0  0  0  0
 19 34  1  0  0  0  0
M  END
>  <lm5_entropy_jk>
21.136452688881562

>  <number_of_rotatable_bonds>
4

>  <IC50_NM>
930

>  <charge>
0

$$$$
