3QTS
 OpenBabel11252210453D

 38 40  0  0  1  0  0  0  0  0999 V2000
   65.2490  154.2610  -50.0330 N   0  0  0  0  0  0  0  0  0  0  0  0
   66.8850  153.1260  -51.3460 N   0  0  0  0  0  0  0  0  0  0  0  0
   63.7470  155.1340  -48.3870 N   0  0  0  0  0  0  0  0  0  0  0  0
   68.2200  149.5350  -44.9260 C   0  0  0  0  0  0  0  0  0  0  0  0
   68.1630  151.0240  -44.9570 C   0  0  0  0  0  0  0  0  0  0  0  0
   67.9590  151.7020  -46.2280 C   0  0  0  0  0  0  0  0  0  0  0  0
   67.8650  149.4470  -47.4260 C   0  0  0  0  0  0  0  0  0  0  0  0
   68.0700  148.7520  -46.1750 C   0  0  0  0  0  0  0  0  0  0  0  0
   68.4940  151.3800  -42.5430 C   0  0  0  0  0  0  0  0  0  0  0  0
   67.8050  150.9220  -47.4890 C   0  0  0  0  0  0  0  0  0  0  0  0
   67.5950  151.5920  -48.8160 C   0  0  0  0  0  0  0  0  0  0  0  0
   66.5560  152.6690  -48.9960 C   0  0  0  0  0  0  0  0  0  0  0  0
   66.2550  153.3500  -50.1680 C   0  0  0  0  0  0  0  0  0  0  0  0
   64.7840  154.2810  -48.7620 C   0  0  0  0  0  0  0  0  0  0  0  0
   62.9480  155.0940  -47.2280 C   0  0  0  0  0  0  0  0  0  0  0  0
   63.0690  154.0550  -46.1170 C   0  0  0  0  0  0  0  0  0  0  0  0
   62.2210  154.0850  -44.9570 C   0  0  0  0  0  0  0  0  0  0  0  0
   61.2170  155.1420  -44.8360 C   0  0  0  0  0  0  0  0  0  0  0  0
   61.0770  156.1610  -45.9030 C   0  0  0  0  0  0  0  0  0  0  0  0
   61.9220  156.1370  -47.0720 C   0  0  0  0  0  0  0  0  0  0  0  0
   68.3230  151.2270  -49.8790 O   0  0  0  0  0  0  0  0  0  0  0  0
   68.3020  151.8290  -43.7910 O   0  0  0  0  0  0  0  0  0  0  0  0
   65.5900  153.1790  -47.7160 S   0  0  0  0  0  0  0  0  0  0  0  0
   68.3650  149.0460  -44.0290 H   0  0  0  0  0  0  0  0  0  0  0  0
   66.6300  153.6390  -52.1460 H   0  0  0  0  0  0  0  0  0  0  0  0
   67.5980  152.4500  -51.4020 H   0  0  0  0  0  0  0  0  0  0  0  0
   67.9210  152.7330  -46.2570 H   0  0  0  0  0  0  0  0  0  0  0  0
   63.5460  155.8630  -49.0180 H   0  0  0  0  0  0  0  0  0  0  0  0
   67.7580  148.9000  -48.2950 H   0  0  0  0  0  0  0  0  0  0  0  0
   68.1110  147.7210  -46.1520 H   0  0  0  0  0  0  0  0  0  0  0  0
   68.5620  152.2100  -41.8720 H   0  0  0  0  0  0  0  0  0  0  0  0
   69.4010  150.8140  -42.5030 H   0  0  0  0  0  0  0  0  0  0  0  0
   67.6720  150.7570  -42.2580 H   0  0  0  0  0  0  0  0  0  0  0  0
   63.7790  153.3110  -46.2010 H   0  0  0  0  0  0  0  0  0  0  0  0
   62.3190  153.3700  -44.2190 H   0  0  0  0  0  0  0  0  0  0  0  0
   60.6050  155.1780  -44.0060 H   0  0  0  0  0  0  0  0  0  0  0  0
   60.3630  156.9000  -45.8080 H   0  0  0  0  0  0  0  0  0  0  0  0
   61.8060  156.8560  -47.8030 H   0  0  0  0  0  0  0  0  0  0  0  0
  1 13  1  0  0  0  0
  1 14  2  0  0  0  0
  2 13  1  0  0  0  0
  2 25  1  0  0  0  0
  2 26  1  0  0  0  0
  3 14  1  0  0  0  0
  3 15  1  0  0  0  0
  3 28  1  0  0  0  0
  4  5  2  0  0  0  0
  4  8  1  0  0  0  0
  4 24  1  0  0  0  0
  5  6  1  0  0  0  0
  5 22  1  0  0  0  0
  6 10  2  0  0  0  0
  6 27  1  0  0  0  0
  7  8  2  0  0  0  0
  7 10  1  0  0  0  0
  7 29  1  0  0  0  0
  8 30  1  0  0  0  0
  9 22  1  0  0  0  0
  9 31  1  0  0  0  0
  9 32  1  0  0  0  0
  9 33  1  0  0  0  0
 11 10  1  0  0  0  0
 11 12  1  0  0  0  0
 11 21  2  0  0  0  0
 12 13  2  0  0  0  0
 12 23  1  0  0  0  0
 14 23  1  0  0  0  0
 15 16  2  0  0  0  0
 15 20  1  0  0  0  0
 16 17  1  0  0  0  0
 16 34  1  0  0  0  0
 17 18  2  0  0  0  0
 17 35  1  0  0  0  0
 18 19  1  0  0  0  0
 18 36  1  0  0  0  0
 19 20  2  0  0  0  0
 19 37  1  0  0  0  0
 20 38  1  0  0  0  0
M  END
>  <lm5_entropy_jk>
31.97375871552738

>  <number_of_rotatable_bonds>
5

>  <IC50_NM>
3100

>  <charge>
0

$$$$
