3QTU
 OpenBabel11252210453D

 44 46  0  0  0  0  0  0  0  0999 V2000
   65.3680  154.1990  -50.5250 N   0  0  0  0  0  0  0  0  0  0  0  0
   64.2640  154.8630  -48.6910 N   0  0  0  0  0  0  0  0  0  0  0  0
   66.7550  153.2770  -52.1290 N   0  0  0  0  0  0  0  0  0  0  0  0
   61.5610  153.0970  -42.8440 N   0  0  0  0  0  0  0  0  0  0  0  0
   70.3830  146.8760  -45.9920 N   0  0  0  0  0  0  0  0  0  0  0  0
   67.0160  152.6500  -49.8870 C   0  0  0  0  0  0  0  0  0  0  0  0
   66.4000  153.3710  -50.9080 C   0  0  0  0  0  0  0  0  0  0  0  0
   65.1880  154.1330  -49.2370 C   0  0  0  0  0  0  0  0  0  0  0  0
   63.5320  154.6310  -47.6510 C   0  0  0  0  0  0  0  0  0  0  0  0
   68.0710  151.7460  -50.0530 C   0  0  0  0  0  0  0  0  0  0  0  0
   68.5460  150.9900  -48.9990 C   0  0  0  0  0  0  0  0  0  0  0  0
   62.5270  155.5970  -47.3330 C   0  0  0  0  0  0  0  0  0  0  0  0
   61.6850  155.4060  -46.2180 C   0  0  0  0  0  0  0  0  0  0  0  0
   61.8450  154.2450  -45.4100 C   0  0  0  0  0  0  0  0  0  0  0  0
   62.8350  153.2900  -45.7120 C   0  0  0  0  0  0  0  0  0  0  0  0
   63.6750  153.4750  -46.8180 C   0  0  0  0  0  0  0  0  0  0  0  0
   69.9490  150.9460  -48.7370 C   0  0  0  0  0  0  0  0  0  0  0  0
   70.4390  150.1760  -47.6610 C   0  0  0  0  0  0  0  0  0  0  0  0
   69.5430  149.4460  -46.8350 C   0  0  0  0  0  0  0  0  0  0  0  0
   68.1500  149.4760  -47.0810 C   0  0  0  0  0  0  0  0  0  0  0  0
   67.6500  150.2450  -48.1630 C   0  0  0  0  0  0  0  0  0  0  0  0
   68.5750  151.6000  -51.1530 O   0  0  0  0  0  0  0  0  0  0  0  0
   59.6610  153.2190  -44.5170 O   0  0  0  0  0  0  0  0  0  0  0  0
   60.3270  155.2630  -43.5310 O   0  0  0  0  0  0  0  0  0  0  0  0
   71.4760  149.0250  -45.1090 O   0  0  0  0  0  0  0  0  0  0  0  0
   69.2690  148.5260  -44.3660 O   0  0  0  0  0  0  0  0  0  0  0  0
   66.2590  153.0520  -48.3950 S   0  0  0  0  0  0  0  0  0  0  0  0
   60.7820  153.9850  -44.0380 S   0  0  0  0  0  0  0  0  0  0  0  0
   70.1860  148.4760  -45.4770 S   0  0  0  0  0  0  0  0  0  0  0  0
   64.0949  155.7244  -49.1367 H   0  0  0  0  0  0  0  0  0  0  0  0
   66.2916  153.8054  -52.8184 H   0  0  0  0  0  0  0  0  0  0  0  0
   67.4925  152.6760  -52.3823 H   0  0  0  0  0  0  0  0  0  0  0  0
   61.8690  152.2047  -43.2303 H   0  0  0  0  0  0  0  0  0  0  0  0
   60.9173  152.9287  -42.0709 H   0  0  0  0  0  0  0  0  0  0  0  0
   71.0328  146.8493  -46.7778 H   0  0  0  0  0  0  0  0  0  0  0  0
   69.4811  146.4992  -46.2837 H   0  0  0  0  0  0  0  0  0  0  0  0
   62.4173  156.4374  -47.9218 H   0  0  0  0  0  0  0  0  0  0  0  0
   60.9585  156.1025  -45.9896 H   0  0  0  0  0  0  0  0  0  0  0  0
   62.9419  152.4529  -45.1180 H   0  0  0  0  0  0  0  0  0  0  0  0
   64.4011  152.7740  -47.0336 H   0  0  0  0  0  0  0  0  0  0  0  0
   70.6033  151.4763  -49.3334 H   0  0  0  0  0  0  0  0  0  0  0  0
   71.4532  150.1430  -47.4731 H   0  0  0  0  0  0  0  0  0  0  0  0
   67.5034  148.9431  -46.4785 H   0  0  0  0  0  0  0  0  0  0  0  0
   66.6353  150.2685  -48.3497 H   0  0  0  0  0  0  0  0  0  0  0  0
  1  8  2  0  0  0  0
  2  9  1  0  0  0  0
  2 30  1  0  0  0  0
  3  7  1  0  0  0  0
  3 31  1  0  0  0  0
  3 32  1  0  0  0  0
  4 33  1  0  0  0  0
  4 34  1  0  0  0  0
  5 29  1  0  0  0  0
  5 35  1  0  0  0  0
  5 36  1  0  0  0  0
  6 27  1  0  0  0  0
  7  1  1  0  0  0  0
  7  6  2  0  0  0  0
  8  2  1  0  0  0  0
  8 27  1  0  0  0  0
  9 12  2  0  0  0  0
  9 16  1  0  0  0  0
 10  6  1  0  0  0  0
 10 11  1  0  0  0  0
 11 17  2  0  0  0  0
 11 21  1  0  0  0  0
 12 13  1  0  0  0  0
 12 37  1  0  0  0  0
 13 14  2  0  0  0  0
 13 38  1  0  0  0  0
 14 28  1  0  0  0  0
 15 14  1  0  0  0  0
 15 39  1  0  0  0  0
 16 15  2  0  0  0  0
 16 40  1  0  0  0  0
 17 18  1  0  0  0  0
 17 41  1  0  0  0  0
 18 19  2  0  0  0  0
 18 42  1  0  0  0  0
 19 29  1  0  0  0  0
 20 19  1  0  0  0  0
 20 43  1  0  0  0  0
 21 20  2  0  0  0  0
 21 44  1  0  0  0  0
 22 10  2  0  0  0  0
 23 28  2  0  0  0  0
 28 24  2  0  0  0  0
 28  4  1  0  0  0  0
 29 25  2  0  0  0  0
 29 26  2  0  0  0  0
M  END
>  <lm5_entropy_jk>
23.933690845995674

>  <number_of_rotatable_bonds>
6

>  <IC50_NM>
70

>  <charge>
0

$$$$
