3QTW
 OpenBabel11252210453D

 33 35  0  0  1  0  0  0  0  0999 V2000
   65.6700  154.2670  -50.3420 N   0  0  0  0  0  0  0  0  0  0  0  0
   67.2170  153.6040  -51.9320 N   0  0  0  0  0  0  0  0  0  0  0  0
   70.6040  149.9220  -47.2610 N   0  0  0  0  0  0  0  0  0  0  0  0
   64.2280  154.7660  -48.5670 N   0  0  0  0  0  0  0  0  0  0  0  0
   66.7350  153.5320  -50.6850 C   0  0  0  0  0  0  0  0  0  0  0  0
   67.2440  152.7250  -49.6570 C   0  0  0  0  0  0  0  0  0  0  0  0
   68.3370  151.8500  -49.7400 C   0  0  0  0  0  0  0  0  0  0  0  0
   68.8360  150.9600  -48.6230 C   0  0  0  0  0  0  0  0  0  0  0  0
   70.2410  150.7810  -48.3100 C   0  0  0  0  0  0  0  0  0  0  0  0
   69.6730  149.2120  -46.4840 C   0  0  0  0  0  0  0  0  0  0  0  0
   68.2780  149.3480  -46.7520 C   0  0  0  0  0  0  0  0  0  0  0  0
   67.8660  150.2180  -47.8200 C   0  0  0  0  0  0  0  0  0  0  0  0
   65.3160  154.0720  -49.0690 C   0  0  0  0  0  0  0  0  0  0  0  0
   63.6250  154.7540  -47.3160 C   0  0  0  0  0  0  0  0  0  0  0  0
   62.4930  155.6470  -47.1100 C   0  0  0  0  0  0  0  0  0  0  0  0
   61.8200  155.6940  -45.8420 C   0  0  0  0  0  0  0  0  0  0  0  0
   62.2590  154.8480  -44.7530 C   0  0  0  0  0  0  0  0  0  0  0  0
   63.3720  153.9530  -44.9260 C   0  0  0  0  0  0  0  0  0  0  0  0
   64.0490  153.9040  -46.1860 C   0  0  0  0  0  0  0  0  0  0  0  0
   69.0160  151.7420  -50.8920 O   0  0  0  0  0  0  0  0  0  0  0  0
   66.3160  152.9510  -48.2370 S   0  0  0  0  0  0  0  0  0  0  0  0
   66.7930  154.2010  -52.5900 H   0  0  0  0  0  0  0  0  0  0  0  0
   67.9950  153.0600  -52.1910 H   0  0  0  0  0  0  0  0  0  0  0  0
   70.9650  151.2790  -48.8520 H   0  0  0  0  0  0  0  0  0  0  0  0
   69.9970  148.5950  -45.7230 H   0  0  0  0  0  0  0  0  0  0  0  0
   67.5800  148.8330  -46.1920 H   0  0  0  0  0  0  0  0  0  0  0  0
   66.8600  150.3210  -48.0250 H   0  0  0  0  0  0  0  0  0  0  0  0
   63.8060  155.3780  -49.2130 H   0  0  0  0  0  0  0  0  0  0  0  0
   62.1720  156.2510  -47.8820 H   0  0  0  0  0  0  0  0  0  0  0  0
   61.0210  156.3330  -45.7070 H   0  0  0  0  0  0  0  0  0  0  0  0
   61.7700  154.8870  -43.8450 H   0  0  0  0  0  0  0  0  0  0  0  0
   63.6800  153.3500  -44.1470 H   0  0  0  0  0  0  0  0  0  0  0  0
   64.8480  153.2630  -46.3070 H   0  0  0  0  0  0  0  0  0  0  0  0
  1  5  1  0  0  0  0
  1 13  2  0  0  0  0
  2  5  1  0  0  0  0
  2 22  1  0  0  0  0
  2 23  1  0  0  0  0
  3  9  2  0  0  0  0
  3 10  1  0  0  0  0
  4 13  1  0  0  0  0
  4 14  1  0  0  0  0
  4 28  1  0  0  0  0
  5  6  2  0  0  0  0
  6 21  1  0  0  0  0
  7  6  1  0  0  0  0
  7  8  1  0  0  0  0
  7 20  2  0  0  0  0
  8  9  1  0  0  0  0
  8 12  2  0  0  0  0
  9 24  1  0  0  0  0
 10 11  2  0  0  0  0
 10 25  1  0  0  0  0
 11 12  1  0  0  0  0
 11 26  1  0  0  0  0
 12 27  1  0  0  0  0
 13 21  1  0  0  0  0
 14 15  2  0  0  0  0
 14 19  1  0  0  0  0
 15 16  1  0  0  0  0
 15 29  1  0  0  0  0
 16 17  2  0  0  0  0
 16 30  1  0  0  0  0
 17 18  1  0  0  0  0
 17 31  1  0  0  0  0
 18 19  2  0  0  0  0
 18 32  1  0  0  0  0
 19 33  1  0  0  0  0
M  END
>  <lm5_entropy_jk>
20.66385753466715

>  <number_of_rotatable_bonds>
4

>  <IC50_NM>
650

>  <charge>
0

$$$$
