3QTX
 OpenBabel11252210453D

 41 43  0  0  1  0  0  0  0  0999 V2000
   65.7710  154.2560  -50.2850 N   0  0  0  0  0  0  0  0  0  0  0  0
   67.4050  153.5590  -51.7940 N   0  0  0  0  0  0  0  0  0  0  0  0
   64.2000  154.7450  -48.6300 N   0  0  0  0  0  0  0  0  0  0  0  0
   71.6510  150.0580  -46.2870 N   0  3  0  0  0  0  0  0  0  0  0  0
   61.2550  152.8070  -42.8780 N   0  0  0  0  0  0  0  0  0  0  0  0
   66.8350  153.4920  -50.5680 C   0  0  0  0  0  0  0  0  0  0  0  0
   67.2460  152.6640  -49.5160 C   0  0  0  0  0  0  0  0  0  0  0  0
   68.3000  151.7670  -49.5380 C   0  0  0  0  0  0  0  0  0  0  0  0
   68.6810  150.8970  -48.3780 C   0  0  0  0  0  0  0  0  0  0  0  0
   70.0210  150.8890  -47.8770 C   0  0  0  0  0  0  0  0  0  0  0  0
   70.3960  150.0530  -46.7550 C   0  0  0  0  0  0  0  0  0  0  0  0
   69.3720  149.2230  -46.1570 C   0  0  0  0  0  0  0  0  0  0  0  0
   68.0430  149.2260  -46.6550 C   0  0  0  0  0  0  0  0  0  0  0  0
   67.6960  150.0550  -47.7570 C   0  0  0  0  0  0  0  0  0  0  0  0
   65.3100  154.0450  -49.0490 C   0  0  0  0  0  0  0  0  0  0  0  0
   63.4820  154.5490  -47.4690 C   0  0  0  0  0  0  0  0  0  0  0  0
   62.3300  155.3680  -47.2640 C   0  0  0  0  0  0  0  0  0  0  0  0
   61.5010  155.1680  -46.1370 C   0  0  0  0  0  0  0  0  0  0  0  0
   61.7990  154.1570  -45.1900 C   0  0  0  0  0  0  0  0  0  0  0  0
   62.9430  153.3410  -45.3540 C   0  0  0  0  0  0  0  0  0  0  0  0
   63.7720  153.5270  -46.4850 C   0  0  0  0  0  0  0  0  0  0  0  0
   69.0570  151.6220  -50.6570 O   0  0  0  0  0  0  0  0  0  0  0  0
   72.5930  150.8200  -46.8360 O   0  0  0  0  0  0  0  0  0  0  0  0
   71.9820  149.3680  -45.3440 O   0  5  0  0  0  0  0  0  0  0  0  0
   59.3590  153.2960  -44.4860 O   0  0  0  0  0  0  0  0  0  0  0  0
   60.3820  155.2170  -43.1480 O   0  0  0  0  0  0  0  0  0  0  0  0
   66.2330  152.9010  -48.1380 S   0  0  0  0  0  0  0  0  0  0  0  0
   60.7290  153.9190  -43.8370 S   0  0  0  0  0  0  0  0  0  0  0  0
   67.0440  154.1750  -52.4720 H   0  0  0  0  0  0  0  0  0  0  0  0
   68.1810  152.9920  -52.0080 H   0  0  0  0  0  0  0  0  0  0  0  0
   70.7330  151.4890  -48.3220 H   0  0  0  0  0  0  0  0  0  0  0  0
   69.6120  148.6190  -45.3550 H   0  0  0  0  0  0  0  0  0  0  0  0
   67.3270  148.6260  -46.2170 H   0  0  0  0  0  0  0  0  0  0  0  0
   66.7280  150.0520  -48.1140 H   0  0  0  0  0  0  0  0  0  0  0  0
   63.8850  155.4640  -49.2240 H   0  0  0  0  0  0  0  0  0  0  0  0
   62.1020  156.1110  -47.9430 H   0  0  0  0  0  0  0  0  0  0  0  0
   60.6700  155.7650  -46.0020 H   0  0  0  0  0  0  0  0  0  0  0  0
   63.1710  152.6170  -44.6550 H   0  0  0  0  0  0  0  0  0  0  0  0
   64.5990  152.9230  -46.6110 H   0  0  0  0  0  0  0  0  0  0  0  0
   61.4660  151.9660  -43.4160 H   0  0  0  0  0  0  0  0  0  0  0  0
   60.5420  152.5940  -42.1810 H   0  0  0  0  0  0  0  0  0  0  0  0
  1  6  1  0  0  0  0
  1 15  2  0  0  0  0
  2  6  1  0  0  0  0
  2 29  1  0  0  0  0
  2 30  1  0  0  0  0
  3 15  1  0  0  0  0
  3 16  1  0  0  0  0
  3 35  1  0  0  0  0
  4 11  1  0  0  0  0
  4 23  2  0  0  0  0
  4 24  1  0  0  0  0
  5 28  1  0  0  0  0
  5 40  1  0  0  0  0
  5 41  1  0  0  0  0
  6  7  2  0  0  0  0
  7 27  1  0  0  0  0
  8  7  1  0  0  0  0
  8  9  1  0  0  0  0
  8 22  2  0  0  0  0
  9 10  2  0  0  0  0
  9 14  1  0  0  0  0
 10 11  1  0  0  0  0
 10 31  1  0  0  0  0
 11 12  2  0  0  0  0
 12 13  1  0  0  0  0
 12 32  1  0  0  0  0
 13 14  2  0  0  0  0
 13 33  1  0  0  0  0
 14 34  1  0  0  0  0
 15 27  1  0  0  0  0
 16 17  2  0  0  0  0
 16 21  1  0  0  0  0
 17 18  1  0  0  0  0
 17 36  1  0  0  0  0
 18 19  2  0  0  0  0
 18 37  1  0  0  0  0
 19 20  1  0  0  0  0
 19 28  1  0  0  0  0
 20 21  2  0  0  0  0
 20 38  1  0  0  0  0
 21 39  1  0  0  0  0
 25 28  2  0  0  0  0
 26 28  2  0  0  0  0
M  CHG  2   4   1  24  -1
M  END
>  <lm5_entropy_jk>
24.48849005177307

>  <number_of_rotatable_bonds>
6

>  <IC50_NM>
70

>  <charge>
0

$$$$
