3QTZ
 OpenBabel11252210453D

 39 41  0  0  0  0  0  0  0  0999 V2000
   65.5640  154.1860  -50.3600 N   0  0  0  0  0  0  0  0  0  0  0  0
   64.3360  154.7520  -48.5660 N   0  0  0  0  0  0  0  0  0  0  0  0
   67.0760  153.3460  -51.8900 N   0  0  0  0  0  0  0  0  0  0  0  0
   61.6200  152.9650  -42.6850 N   0  0  0  0  0  0  0  0  0  0  0  0
   67.2120  152.6490  -49.6520 C   0  0  0  0  0  0  0  0  0  0  0  0
   66.6430  153.3900  -50.6970 C   0  0  0  0  0  0  0  0  0  0  0  0
   65.3010  154.0690  -49.0800 C   0  0  0  0  0  0  0  0  0  0  0  0
   63.6150  154.5090  -47.5220 C   0  0  0  0  0  0  0  0  0  0  0  0
   68.3060  151.7810  -49.7600 C   0  0  0  0  0  0  0  0  0  0  0  0
   68.7240  150.9890  -48.6870 C   0  0  0  0  0  0  0  0  0  0  0  0
   67.7890  150.1820  -47.9390 C   0  0  0  0  0  0  0  0  0  0  0  0
   68.2360  149.3870  -46.8490 C   0  0  0  0  0  0  0  0  0  0  0  0
   69.6080  149.3770  -46.4880 C   0  0  0  0  0  0  0  0  0  0  0  0
   70.5410  150.1580  -47.2150 C   0  0  0  0  0  0  0  0  0  0  0  0
   70.1090  150.9650  -48.3130 C   0  0  0  0  0  0  0  0  0  0  0  0
   62.6250  155.4820  -47.1840 C   0  0  0  0  0  0  0  0  0  0  0  0
   61.7810  155.2810  -46.0690 C   0  0  0  0  0  0  0  0  0  0  0  0
   61.9240  154.1010  -45.2820 C   0  0  0  0  0  0  0  0  0  0  0  0
   62.9050  153.1330  -45.5990 C   0  0  0  0  0  0  0  0  0  0  0  0
   63.7480  153.3310  -46.7110 C   0  0  0  0  0  0  0  0  0  0  0  0
   68.9180  151.7140  -50.8250 O   0  0  0  0  0  0  0  0  0  0  0  0
   59.7410  153.0410  -44.3930 O   0  0  0  0  0  0  0  0  0  0  0  0
   60.3490  155.1020  -43.4250 O   0  0  0  0  0  0  0  0  0  0  0  0
   66.3330  152.9880  -48.2070 S   0  0  0  0  0  0  0  0  0  0  0  0
   60.8440  153.8280  -43.9180 S   0  0  0  0  0  0  0  0  0  0  0  0
   71.8230  150.1390  -46.8680 F   0  0  0  0  0  0  0  0  0  0  0  0
   64.1149  155.5854  -49.0413 H   0  0  0  0  0  0  0  0  0  0  0  0
   66.6432  153.8851  -52.5910 H   0  0  0  0  0  0  0  0  0  0  0  0
   67.8445  152.7728  -52.1139 H   0  0  0  0  0  0  0  0  0  0  0  0
   61.9585  152.0761  -43.0533 H   0  0  0  0  0  0  0  0  0  0  0  0
   60.9613  152.7899  -41.9261 H   0  0  0  0  0  0  0  0  0  0  0  0
   66.7899  150.1825  -48.1975 H   0  0  0  0  0  0  0  0  0  0  0  0
   67.5604  148.8151  -46.3184 H   0  0  0  0  0  0  0  0  0  0  0  0
   69.9274  148.7998  -45.6943 H   0  0  0  0  0  0  0  0  0  0  0  0
   70.7942  151.5311  -48.8374 H   0  0  0  0  0  0  0  0  0  0  0  0
   62.5260  156.3349  -47.7565 H   0  0  0  0  0  0  0  0  0  0  0  0
   61.0656  155.9839  -45.8258 H   0  0  0  0  0  0  0  0  0  0  0  0
   63.0032  152.2853  -45.0186 H   0  0  0  0  0  0  0  0  0  0  0  0
   64.4646  152.6258  -46.9438 H   0  0  0  0  0  0  0  0  0  0  0  0
  1  7  2  0  0  0  0
  2  8  1  0  0  0  0
  2 27  1  0  0  0  0
  3  6  1  0  0  0  0
  3 28  1  0  0  0  0
  3 29  1  0  0  0  0
  4 30  1  0  0  0  0
  4 31  1  0  0  0  0
  5 24  1  0  0  0  0
  6  1  1  0  0  0  0
  6  5  2  0  0  0  0
  7  2  1  0  0  0  0
  7 24  1  0  0  0  0
  8 16  2  0  0  0  0
  8 20  1  0  0  0  0
  9  5  1  0  0  0  0
  9 10  1  0  0  0  0
 10 15  2  0  0  0  0
 10 11  1  0  0  0  0
 11 12  2  0  0  0  0
 11 32  1  0  0  0  0
 12 13  1  0  0  0  0
 12 33  1  0  0  0  0
 13 34  1  0  0  0  0
 14 26  1  0  0  0  0
 14 13  2  0  0  0  0
 15 14  1  0  0  0  0
 15 35  1  0  0  0  0
 16 17  1  0  0  0  0
 16 36  1  0  0  0  0
 17 18  2  0  0  0  0
 17 37  1  0  0  0  0
 18 25  1  0  0  0  0
 19 18  1  0  0  0  0
 19 38  1  0  0  0  0
 20 19  2  0  0  0  0
 20 39  1  0  0  0  0
 21  9  2  0  0  0  0
 22 25  2  0  0  0  0
 25 23  2  0  0  0  0
 25  4  1  0  0  0  0
M  END
>  <lm5_entropy_jk>
22.397995528352578

>  <number_of_rotatable_bonds>
5

>  <IC50_NM>
50

>  <charge>
0

$$$$
