3QU0
 OpenBabel11252210453D

 38 40  0  0  0  0  0  0  0  0999 V2000
   65.7730  154.2000  -50.4310 N   0  0  0  0  0  0  0  0  0  0  0  0
   64.4740  154.7670  -48.6650 N   0  0  0  0  0  0  0  0  0  0  0  0
   70.5120  149.7090  -47.5050 N   0  0  0  0  0  0  0  0  0  0  0  0
   67.2990  153.3570  -51.9280 N   0  0  0  0  0  0  0  0  0  0  0  0
   61.7730  153.0890  -42.6920 N   0  0  0  0  0  0  0  0  0  0  0  0
   67.3560  152.6130  -49.7170 C   0  0  0  0  0  0  0  0  0  0  0  0
   66.8370  153.3880  -50.7540 C   0  0  0  0  0  0  0  0  0  0  0  0
   65.4670  154.0700  -49.1710 C   0  0  0  0  0  0  0  0  0  0  0  0
   63.7430  154.5100  -47.6130 C   0  0  0  0  0  0  0  0  0  0  0  0
   68.4220  151.7190  -49.8300 C   0  0  0  0  0  0  0  0  0  0  0  0
   68.7610  150.8330  -48.8070 C   0  0  0  0  0  0  0  0  0  0  0  0
   67.7780  150.1420  -48.0210 C   0  0  0  0  0  0  0  0  0  0  0  0
   68.1630  149.2570  -46.9900 C   0  0  0  0  0  0  0  0  0  0  0  0
   69.5360  149.0700  -46.7630 C   0  0  0  0  0  0  0  0  0  0  0  0
   70.1110  150.5720  -48.5010 C   0  0  0  0  0  0  0  0  0  0  0  0
   63.7760  153.2620  -46.8820 C   0  0  0  0  0  0  0  0  0  0  0  0
   62.9360  153.0680  -45.7570 C   0  0  0  0  0  0  0  0  0  0  0  0
   62.0530  154.1050  -45.3420 C   0  0  0  0  0  0  0  0  0  0  0  0
   62.0090  155.3410  -46.0480 C   0  0  0  0  0  0  0  0  0  0  0  0
   62.8490  155.5400  -47.1730 C   0  0  0  0  0  0  0  0  0  0  0  0
   69.0730  151.6960  -50.8780 O   0  0  0  0  0  0  0  0  0  0  0  0
   59.9010  153.0260  -44.4000 O   0  0  0  0  0  0  0  0  0  0  0  0
   60.4680  155.1450  -43.5160 O   0  0  0  0  0  0  0  0  0  0  0  0
   66.4550  152.9540  -48.2880 S   0  0  0  0  0  0  0  0  0  0  0  0
   60.9800  153.8600  -43.9630 S   0  0  0  0  0  0  0  0  0  0  0  0
   64.2503  155.5970  -49.1448 H   0  0  0  0  0  0  0  0  0  0  0  0
   66.9006  153.9220  -52.6289 H   0  0  0  0  0  0  0  0  0  0  0  0
   68.0578  152.7678  -52.1430 H   0  0  0  0  0  0  0  0  0  0  0  0
   62.1302  152.1883  -43.0106 H   0  0  0  0  0  0  0  0  0  0  0  0
   61.1197  152.9428  -41.9224 H   0  0  0  0  0  0  0  0  0  0  0  0
   66.7754  150.2943  -48.2123 H   0  0  0  0  0  0  0  0  0  0  0  0
   67.4574  148.7633  -46.4213 H   0  0  0  0  0  0  0  0  0  0  0  0
   69.8292  148.4281  -46.0100 H   0  0  0  0  0  0  0  0  0  0  0  0
   70.8386  151.0531  -49.0525 H   0  0  0  0  0  0  0  0  0  0  0  0
   64.4148  152.5088  -47.1814 H   0  0  0  0  0  0  0  0  0  0  0  0
   62.9644  152.1758  -45.2391 H   0  0  0  0  0  0  0  0  0  0  0  0
   61.3678  156.0895  -45.7419 H   0  0  0  0  0  0  0  0  0  0  0  0
   62.8161  156.4376  -47.6811 H   0  0  0  0  0  0  0  0  0  0  0  0
  1  8  2  0  0  0  0
  2  9  1  0  0  0  0
  2 26  1  0  0  0  0
  3 14  2  0  0  0  0
  4  7  1  0  0  0  0
  4 27  1  0  0  0  0
  4 28  1  0  0  0  0
  5 29  1  0  0  0  0
  5 30  1  0  0  0  0
  6 24  1  0  0  0  0
  7  1  1  0  0  0  0
  7  6  2  0  0  0  0
  8  2  1  0  0  0  0
  8 24  1  0  0  0  0
  9 20  2  0  0  0  0
  9 16  1  0  0  0  0
 10  6  1  0  0  0  0
 10 11  1  0  0  0  0
 11 15  2  0  0  0  0
 11 12  1  0  0  0  0
 12 13  2  0  0  0  0
 12 31  1  0  0  0  0
 13 14  1  0  0  0  0
 13 32  1  0  0  0  0
 14 33  1  0  0  0  0
 15  3  1  0  0  0  0
 15 34  1  0  0  0  0
 16 17  2  0  0  0  0
 16 35  1  0  0  0  0
 17 18  1  0  0  0  0
 17 36  1  0  0  0  0
 18 25  1  0  0  0  0
 19 18  2  0  0  0  0
 19 37  1  0  0  0  0
 20 19  1  0  0  0  0
 20 38  1  0  0  0  0
 21 10  2  0  0  0  0
 22 25  2  0  0  0  0
 25 23  2  0  0  0  0
 25  5  1  0  0  0  0
M  END
>  <lm5_entropy_jk>
22.397995528352578

>  <number_of_rotatable_bonds>
5

>  <IC50_NM>
20

>  <charge>
0

$$$$
