3QXP
 OpenBabel11252210453D

 41 43  0  0  0  0  0  0  0  0999 V2000
   65.6610  154.2730  -50.5090 N   0  0  0  0  0  0  0  0  0  0  0  0
   64.4580  154.8740  -48.6780 N   0  0  0  0  0  0  0  0  0  0  0  0
   67.0990  153.3710  -52.1000 N   0  0  0  0  0  0  0  0  0  0  0  0
   61.7300  153.0180  -42.8130 N   0  0  0  0  0  0  0  0  0  0  0  0
   70.8770  151.6270  -48.7980 N   0  3  0  0  0  0  0  0  0  0  0  0
   67.2250  152.6380  -49.8750 C   0  0  0  0  0  0  0  0  0  0  0  0
   66.6880  153.4250  -50.8850 C   0  0  0  0  0  0  0  0  0  0  0  0
   65.4050  154.1550  -49.2230 C   0  0  0  0  0  0  0  0  0  0  0  0
   63.7050  154.6140  -47.6310 C   0  0  0  0  0  0  0  0  0  0  0  0
   68.2420  151.6960  -50.0200 C   0  0  0  0  0  0  0  0  0  0  0  0
   68.5930  150.8660  -48.9410 C   0  0  0  0  0  0  0  0  0  0  0  0
   69.9330  150.8640  -48.3570 C   0  0  0  0  0  0  0  0  0  0  0  0
   70.2160  149.9900  -47.2550 C   0  0  0  0  0  0  0  0  0  0  0  0
   69.2160  149.1320  -46.7310 C   0  0  0  0  0  0  0  0  0  0  0  0
   67.9070  149.1290  -47.3020 C   0  0  0  0  0  0  0  0  0  0  0  0
   67.5990  149.9820  -48.3910 C   0  0  0  0  0  0  0  0  0  0  0  0
   63.8270  153.4210  -46.8350 C   0  0  0  0  0  0  0  0  0  0  0  0
   62.9720  153.2020  -45.7280 C   0  0  0  0  0  0  0  0  0  0  0  0
   61.9900  154.1600  -45.3950 C   0  0  0  0  0  0  0  0  0  0  0  0
   61.8580  155.3520  -46.1690 C   0  0  0  0  0  0  0  0  0  0  0  0
   62.7110  155.5730  -47.2760 C   0  0  0  0  0  0  0  0  0  0  0  0
   68.7800  151.5220  -51.1210 O   0  0  0  0  0  0  0  0  0  0  0  0
   59.8370  153.0150  -44.5090 O   0  0  0  0  0  0  0  0  0  0  0  0
   60.3810  155.1180  -43.5050 O   0  0  0  0  0  0  0  0  0  0  0  0
   72.0940  151.1520  -48.8940 O   0  5  0  0  0  0  0  0  0  0  0  0
   70.6530  152.8760  -49.1240 O   0  0  0  0  0  0  0  0  0  0  0  0
   66.4070  153.0190  -48.3930 S   0  0  0  0  0  0  0  0  0  0  0  0
   60.9000  153.8550  -44.0180 S   0  0  0  0  0  0  0  0  0  0  0  0
   64.2827  155.7379  -49.1163 H   0  0  0  0  0  0  0  0  0  0  0  0
   66.6891  153.9479  -52.7844 H   0  0  0  0  0  0  0  0  0  0  0  0
   67.8241  152.7527  -52.3473 H   0  0  0  0  0  0  0  0  0  0  0  0
   62.0842  152.1395  -43.1915 H   0  0  0  0  0  0  0  0  0  0  0  0
   61.0974  152.8233  -42.0369 H   0  0  0  0  0  0  0  0  0  0  0  0
   71.1600  149.9857  -46.8381 H   0  0  0  0  0  0  0  0  0  0  0  0
   69.4341  148.5098  -45.9371 H   0  0  0  0  0  0  0  0  0  0  0  0
   67.1816  148.5024  -46.9196 H   0  0  0  0  0  0  0  0  0  0  0  0
   66.6495  149.9692  -48.7951 H   0  0  0  0  0  0  0  0  0  0  0  0
   64.5445  152.7186  -47.0735 H   0  0  0  0  0  0  0  0  0  0  0  0
   63.0666  152.3424  -45.1648 H   0  0  0  0  0  0  0  0  0  0  0  0
   61.1411  156.0519  -45.9214 H   0  0  0  0  0  0  0  0  0  0  0  0
   62.6129  156.4368  -47.8321 H   0  0  0  0  0  0  0  0  0  0  0  0
  1  8  2  0  0  0  0
  2  9  1  0  0  0  0
  2 29  1  0  0  0  0
  3  7  1  0  0  0  0
  3 30  1  0  0  0  0
  3 31  1  0  0  0  0
  4 32  1  0  0  0  0
  4 33  1  0  0  0  0
  5 12  1  0  0  0  0
  6 27  1  0  0  0  0
  7  1  1  0  0  0  0
  7  6  2  0  0  0  0
  8  2  1  0  0  0  0
  8 27  1  0  0  0  0
  9 21  2  0  0  0  0
  9 17  1  0  0  0  0
 10  6  1  0  0  0  0
 10 11  1  0  0  0  0
 11 16  2  0  0  0  0
 11 12  1  0  0  0  0
 12 13  2  0  0  0  0
 13 14  1  0  0  0  0
 13 34  1  0  0  0  0
 14 35  1  0  0  0  0
 15 14  2  0  0  0  0
 15 36  1  0  0  0  0
 16 15  1  0  0  0  0
 16 37  1  0  0  0  0
 17 18  2  0  0  0  0
 17 38  1  0  0  0  0
 18 19  1  0  0  0  0
 18 39  1  0  0  0  0
 19 28  1  0  0  0  0
 20 19  2  0  0  0  0
 20 40  1  0  0  0  0
 21 20  1  0  0  0  0
 21 41  1  0  0  0  0
 22 10  2  0  0  0  0
 23 28  2  0  0  0  0
 25  5  1  0  0  0  0
 26  5  2  0  0  0  0
 28 24  2  0  0  0  0
 28  4  1  0  0  0  0
M  CHG  2   5   1  25  -1
M  END
>  <lm5_entropy_jk>
23.933690845995674

>  <number_of_rotatable_bonds>
6

>  <IC50_NM>
20

>  <charge>
0

$$$$
