3R8U
 OpenBabel11252210453D

 37 39  0  0  1  0  0  0  0  0999 V2000
   64.1640  155.3410  -48.4790 N   0  0  0  0  0  0  0  0  0  0  0  0
   65.5540  154.3820  -50.1260 N   0  0  0  0  0  0  0  0  0  0  0  0
   67.0380  153.2080  -51.4940 N   0  0  0  0  0  0  0  0  0  0  0  0
   62.3530  153.7910  -46.3560 C   0  0  0  0  0  0  0  0  0  0  0  0
   62.6630  155.1870  -46.7140 C   0  0  0  0  0  0  0  0  0  0  0  0
   63.9220  155.5750  -47.0560 C   0  0  0  0  0  0  0  0  0  0  0  0
   65.1300  154.4460  -48.8640 C   0  0  0  0  0  0  0  0  0  0  0  0
   66.7960  152.7250  -49.1020 C   0  0  0  0  0  0  0  0  0  0  0  0
   66.4930  153.4260  -50.2860 C   0  0  0  0  0  0  0  0  0  0  0  0
   67.6750  151.6870  -48.9270 C   0  0  0  0  0  0  0  0  0  0  0  0
   67.8660  151.0290  -47.5850 C   0  0  0  0  0  0  0  0  0  0  0  0
   68.0900  151.8000  -46.3850 C   0  0  0  0  0  0  0  0  0  0  0  0
   68.2370  151.1520  -45.1200 C   0  0  0  0  0  0  0  0  0  0  0  0
   68.1620  149.7000  -45.0500 C   0  0  0  0  0  0  0  0  0  0  0  0
   67.9480  148.9480  -46.2360 C   0  0  0  0  0  0  0  0  0  0  0  0
   67.7980  149.6060  -47.4950 C   0  0  0  0  0  0  0  0  0  0  0  0
   68.4530  151.9120  -43.9190 C   0  0  0  0  0  0  0  0  0  0  0  0
   68.5900  151.2380  -42.6670 C   0  0  0  0  0  0  0  0  0  0  0  0
   68.5140  149.8160  -42.6000 C   0  0  0  0  0  0  0  0  0  0  0  0
   68.3020  149.0460  -43.7810 C   0  0  0  0  0  0  0  0  0  0  0  0
   68.3930  151.1910  -49.9690 O   0  0  0  0  0  0  0  0  0  0  0  0
   65.8690  153.3350  -47.8030 S   0  0  0  0  0  0  0  0  0  0  0  0
   64.0380  156.6180  -46.8470 H   0  0  0  0  0  0  0  0  0  0  0  0
   64.6260  155.0030  -46.4880 H   0  0  0  0  0  0  0  0  0  0  0  0
   63.6370  155.8230  -49.1570 H   0  0  0  0  0  0  0  0  0  0  0  0
   66.7600  153.7530  -52.2650 H   0  0  0  0  0  0  0  0  0  0  0  0
   67.7160  152.5030  -51.6080 H   0  0  0  0  0  0  0  0  0  0  0  0
   68.1450  152.8290  -46.4410 H   0  0  0  0  0  0  0  0  0  0  0  0
   67.9000  147.9180  -46.1880 H   0  0  0  0  0  0  0  0  0  0  0  0
   67.6390  149.0470  -48.3480 H   0  0  0  0  0  0  0  0  0  0  0  0
   68.5090  152.9420  -43.9610 H   0  0  0  0  0  0  0  0  0  0  0  0
   68.7450  151.7840  -41.8050 H   0  0  0  0  0  0  0  0  0  0  0  0
   68.6130  149.3400  -41.6900 H   0  0  0  0  0  0  0  0  0  0  0  0
   68.2490  148.0170  -43.7230 H   0  0  0  0  0  0  0  0  0  0  0  0
   61.3341  153.5097  -46.0897 H   0  0  0  0  0  0  0  0  0  0  0  0
   63.1423  153.0395  -46.3580 H   0  0  0  0  0  0  0  0  0  0  0  0
   61.8630  155.9280  -46.7050 H   0  0  0  0  0  0  0  0  0  0  0  0
  1  6  1  0  0  0  0
  1  7  1  0  0  0  0
  1 25  1  0  0  0  0
  2  7  2  0  0  0  0
  2  9  1  0  0  0  0
  3  9  1  0  0  0  0
  3 26  1  0  0  0  0
  3 27  1  0  0  0  0
  4  5  2  0  0  0  0
  4 35  1  0  0  0  0
  4 36  1  0  0  0  0
  5  6  1  0  0  0  0
  5 37  1  0  0  0  0
  6 23  1  0  0  0  0
  6 24  1  0  0  0  0
  7 22  1  0  0  0  0
  8  9  2  0  0  0  0
  8 22  1  0  0  0  0
 10  8  1  0  0  0  0
 10 11  1  0  0  0  0
 10 21  2  0  0  0  0
 11 12  2  0  0  0  0
 11 16  1  0  0  0  0
 12 13  1  0  0  0  0
 12 28  1  0  0  0  0
 13 14  2  0  0  0  0
 13 17  1  0  0  0  0
 14 15  1  0  0  0  0
 14 20  1  0  0  0  0
 15 16  2  0  0  0  0
 15 29  1  0  0  0  0
 16 30  1  0  0  0  0
 17 18  2  0  0  0  0
 17 31  1  0  0  0  0
 18 19  1  0  0  0  0
 18 32  1  0  0  0  0
 19 20  2  0  0  0  0
 19 33  1  0  0  0  0
 20 34  1  0  0  0  0
M  END
>  <lm5_entropy_jk>
31.97375871552738

>  <number_of_rotatable_bonds>
5

>  <IC50_NM>
5000

>  <charge>
0

$$$$
