3R8V
 OpenBabel11252210453D

 33 34  0  0  1  0  0  0  0  0999 V2000
   65.4950  154.2170  -50.1280 N   0  0  0  0  0  0  0  0  0  0  0  0
   67.0010  153.0280  -51.4810 N   0  0  0  0  0  0  0  0  0  0  0  0
   64.0730  155.1920  -48.4800 N   0  0  0  0  0  0  0  0  0  0  0  0
   68.3470  151.4680  -43.9880 N   0  3  0  0  0  0  0  0  0  0  0  0
   66.4190  153.2520  -50.2700 C   0  0  0  0  0  0  0  0  0  0  0  0
   66.6890  152.5360  -49.0740 C   0  0  0  0  0  0  0  0  0  0  0  0
   67.5680  151.4840  -48.9130 C   0  0  0  0  0  0  0  0  0  0  0  0
   67.8150  150.7650  -47.6220 C   0  0  0  0  0  0  0  0  0  0  0  0
   67.9610  151.4740  -46.3790 C   0  0  0  0  0  0  0  0  0  0  0  0
   68.2190  150.7890  -45.1420 C   0  0  0  0  0  0  0  0  0  0  0  0
   68.3320  149.3470  -45.1940 C   0  0  0  0  0  0  0  0  0  0  0  0
   68.1900  148.6400  -46.4160 C   0  0  0  0  0  0  0  0  0  0  0  0
   67.9320  149.3400  -47.6260 C   0  0  0  0  0  0  0  0  0  0  0  0
   65.0390  154.2800  -48.8520 C   0  0  0  0  0  0  0  0  0  0  0  0
   63.6570  155.3330  -47.0790 C   0  0  0  0  0  0  0  0  0  0  0  0
   62.7360  154.2140  -46.6500 C   0  0  0  0  0  0  0  0  0  0  0  0
   63.1280  153.2620  -45.5800 C   0  0  0  0  0  0  0  0  0  0  0  0
   68.2670  151.0170  -49.9630 O   0  0  0  0  0  0  0  0  0  0  0  0
   68.2290  152.7980  -43.9410 O   0  5  0  0  0  0  0  0  0  0  0  0
   68.5710  150.9070  -42.9390 O   0  0  0  0  0  0  0  0  0  0  0  0
   65.7420  153.1440  -47.7730 S   0  0  0  0  0  0  0  0  0  0  0  0
   66.7490  153.5780  -52.2580 H   0  0  0  0  0  0  0  0  0  0  0  0
   67.6740  152.3160  -51.5800 H   0  0  0  0  0  0  0  0  0  0  0  0
   67.8780  152.5030  -46.3750 H   0  0  0  0  0  0  0  0  0  0  0  0
   68.5200  148.8230  -44.3250 H   0  0  0  0  0  0  0  0  0  0  0  0
   68.2740  147.6110  -46.4260 H   0  0  0  0  0  0  0  0  0  0  0  0
   67.8290  148.8180  -48.5100 H   0  0  0  0  0  0  0  0  0  0  0  0
   63.6540  155.7590  -49.1670 H   0  0  0  0  0  0  0  0  0  0  0  0
   63.1460  156.2660  -46.9620 H   0  0  0  0  0  0  0  0  0  0  0  0
   64.5340  155.2940  -46.4670 H   0  0  0  0  0  0  0  0  0  0  0  0
   62.4436  152.4693  -45.2789 H   0  0  0  0  0  0  0  0  0  0  0  0
   64.1004  153.3563  -45.0966 H   0  0  0  0  0  0  0  0  0  0  0  0
   61.7660  154.1040  -47.1350 H   0  0  0  0  0  0  0  0  0  0  0  0
  1  5  1  0  0  0  0
  1 14  2  0  0  0  0
  2  5  1  0  0  0  0
  2 22  1  0  0  0  0
  2 23  1  0  0  0  0
  3 14  1  0  0  0  0
  3 15  1  0  0  0  0
  3 28  1  0  0  0  0
  4 10  1  0  0  0  0
  4 19  1  0  0  0  0
  4 20  2  0  0  0  0
  5  6  2  0  0  0  0
  6 21  1  0  0  0  0
  7  6  1  0  0  0  0
  7  8  1  0  0  0  0
  7 18  2  0  0  0  0
  8  9  2  0  0  0  0
  8 13  1  0  0  0  0
  9 10  1  0  0  0  0
  9 24  1  0  0  0  0
 10 11  2  0  0  0  0
 11 12  1  0  0  0  0
 11 25  1  0  0  0  0
 12 13  2  0  0  0  0
 12 26  1  0  0  0  0
 13 27  1  0  0  0  0
 14 21  1  0  0  0  0
 15 16  1  0  0  0  0
 15 29  1  0  0  0  0
 15 30  1  0  0  0  0
 16 17  2  0  0  0  0
 16 33  1  0  0  0  0
 17 31  1  0  0  0  0
 17 32  1  0  0  0  0
M  CHG  2   4   1  19  -1
M  END
>  <lm5_entropy_jk>
33.50945403317048

>  <number_of_rotatable_bonds>
6

>  <IC50_NM>
2900

>  <charge>
0

$$$$
