3R8Z
 OpenBabel11252210453D

 30 31  0  0  1  0  0  0  0  0999 V2000
   65.6250  154.2730  -50.2790 N   0  0  0  0  0  0  0  0  0  0  0  0
   66.9760  153.3360  -51.9070 N   0  0  0  0  0  0  0  0  0  0  0  0
   70.0510  149.6650  -46.3960 N   0  0  0  0  0  0  0  0  0  0  0  0
   64.4060  155.0170  -48.4080 N   0  0  0  0  0  0  0  0  0  0  0  0
   66.6120  153.4450  -50.6210 C   0  0  0  0  0  0  0  0  0  0  0  0
   67.1860  152.7340  -49.5570 C   0  0  0  0  0  0  0  0  0  0  0  0
   68.2260  151.8050  -49.6610 C   0  0  0  0  0  0  0  0  0  0  0  0
   68.8320  151.0530  -48.5130 C   0  0  0  0  0  0  0  0  0  0  0  0
   68.0330  150.3400  -47.5620 C   0  0  0  0  0  0  0  0  0  0  0  0
   68.6680  149.6460  -46.4990 C   0  0  0  0  0  0  0  0  0  0  0  0
   70.8540  150.3420  -47.2960 C   0  0  0  0  0  0  0  0  0  0  0  0
   70.2630  151.0500  -48.3730 C   0  0  0  0  0  0  0  0  0  0  0  0
   65.3930  154.2420  -48.9580 C   0  0  0  0  0  0  0  0  0  0  0  0
   64.0920  154.9170  -46.9950 C   0  0  0  0  0  0  0  0  0  0  0  0
   62.8120  154.1650  -46.7950 C   0  0  0  0  0  0  0  0  0  0  0  0
   62.7820  152.7020  -46.7720 C   0  0  0  0  0  0  0  0  0  0  0  0
   68.7710  151.5250  -50.8730 O   0  0  0  0  0  0  0  0  0  0  0  0
   66.4180  153.1640  -48.0600 S   0  0  0  0  0  0  0  0  0  0  0  0
   66.5200  153.8730  -52.5950 H   0  0  0  0  0  0  0  0  0  0  0  0
   67.6990  152.7190  -52.1630 H   0  0  0  0  0  0  0  0  0  0  0  0
   67.0050  150.3310  -47.6490 H   0  0  0  0  0  0  0  0  0  0  0  0
   68.1030  149.1300  -45.8060 H   0  0  0  0  0  0  0  0  0  0  0  0
   71.8800  150.3320  -47.1840 H   0  0  0  0  0  0  0  0  0  0  0  0
   70.8540  151.5580  -49.0490 H   0  0  0  0  0  0  0  0  0  0  0  0
   63.9060  155.6470  -48.9760 H   0  0  0  0  0  0  0  0  0  0  0  0
   63.9900  155.9010  -46.5860 H   0  0  0  0  0  0  0  0  0  0  0  0
   64.8830  154.3930  -46.5010 H   0  0  0  0  0  0  0  0  0  0  0  0
   61.8830  154.7190  -46.6640 H   0  0  0  0  0  0  0  0  0  0  0  0
   63.7040  152.1360  -46.9020 H   0  0  0  0  0  0  0  0  0  0  0  0
   61.8370  152.1780  -46.6250 H   0  0  0  0  0  0  0  0  0  0  0  0
  1  5  1  0  0  0  0
  1 13  2  0  0  0  0
  2  5  1  0  0  0  0
  2 19  1  0  0  0  0
  2 20  1  0  0  0  0
  3 10  2  0  0  0  0
  3 11  1  0  0  0  0
  4 13  1  0  0  0  0
  4 14  1  0  0  0  0
  4 25  1  0  0  0  0
  5  6  2  0  0  0  0
  6 18  1  0  0  0  0
  7  6  1  0  0  0  0
  7  8  1  0  0  0  0
  7 17  2  0  0  0  0
  8  9  2  0  0  0  0
  8 12  1  0  0  0  0
  9 10  1  0  0  0  0
  9 21  1  0  0  0  0
 10 22  1  0  0  0  0
 11 12  2  0  0  0  0
 11 23  1  0  0  0  0
 12 24  1  0  0  0  0
 13 18  1  0  0  0  0
 14 15  1  0  0  0  0
 14 26  1  0  0  0  0
 14 27  1  0  0  0  0
 15 16  2  0  0  0  0
 15 28  1  0  0  0  0
 16 29  1  0  0  0  0
 16 30  1  0  0  0  0
M  END
>  <lm5_entropy_jk>
22.952794734129974

>  <number_of_rotatable_bonds>
5

>  <IC50_NM>
49000

>  <charge>
0

$$$$
