3R9D
 OpenBabel11252210453D

 41 43  0  0  0  0  0  0  0  0999 V2000
   65.5490  154.2750  -50.5130 N   0  0  0  0  0  0  0  0  0  0  0  0
   64.2690  154.8490  -48.7350 N   0  0  0  0  0  0  0  0  0  0  0  0
   68.7630  151.4070  -48.6080 N   0  0  0  0  0  0  0  0  0  0  0  0
   67.0980  153.4430  -52.0140 N   0  0  0  0  0  0  0  0  0  0  0  0
   61.7410  153.2740  -42.6950 N   0  0  0  0  0  0  0  0  0  0  0  0
   67.2360  152.8160  -49.7630 C   0  0  0  0  0  0  0  0  0  0  0  0
   66.6570  153.5040  -50.8260 C   0  0  0  0  0  0  0  0  0  0  0  0
   65.2790  154.1840  -49.2290 C   0  0  0  0  0  0  0  0  0  0  0  0
   63.5590  154.5930  -47.6680 C   0  0  0  0  0  0  0  0  0  0  0  0
   68.3400  151.9840  -49.8070 C   0  0  0  0  0  0  0  0  0  0  0  0
   62.5770  155.5570  -47.3010 C   0  0  0  0  0  0  0  0  0  0  0  0
   61.7580  155.3600  -46.1620 C   0  0  0  0  0  0  0  0  0  0  0  0
   61.9090  154.1910  -45.3730 C   0  0  0  0  0  0  0  0  0  0  0  0
   62.8810  153.2130  -45.7110 C   0  0  0  0  0  0  0  0  0  0  0  0
   63.7070  153.4060  -46.8540 C   0  0  0  0  0  0  0  0  0  0  0  0
   69.8340  150.5620  -48.4280 C   0  0  0  0  0  0  0  0  0  0  0  0
   69.7720  149.6040  -47.3770 C   0  0  0  0  0  0  0  0  0  0  0  0
   70.8670  148.7170  -47.1440 C   0  0  0  0  0  0  0  0  0  0  0  0
   72.0280  148.7890  -47.9700 C   0  0  0  0  0  0  0  0  0  0  0  0
   72.0980  149.7400  -49.0220 C   0  0  0  0  0  0  0  0  0  0  0  0
   71.0100  150.6270  -49.2510 C   0  0  0  0  0  0  0  0  0  0  0  0
   68.9300  151.7700  -50.8670 O   0  0  0  0  0  0  0  0  0  0  0  0
   59.8250  153.0550  -44.3400 O   0  0  0  0  0  0  0  0  0  0  0  0
   60.2910  155.2390  -43.5750 O   0  0  0  0  0  0  0  0  0  0  0  0
   66.3440  153.1590  -48.3210 S   0  0  0  0  0  0  0  0  0  0  0  0
   60.8660  153.9550  -43.9590 S   0  0  0  0  0  0  0  0  0  0  0  0
   73.1770  149.8080  -49.7900 F   0  0  0  0  0  0  0  0  0  0  0  0
   64.0062  155.6548  -49.2359 H   0  0  0  0  0  0  0  0  0  0  0  0
   68.2385  151.6286  -47.8048 H   0  0  0  0  0  0  0  0  0  0  0  0
   66.6522  153.9492  -52.7311 H   0  0  0  0  0  0  0  0  0  0  0  0
   67.8860  152.8895  -52.2188 H   0  0  0  0  0  0  0  0  0  0  0  0
   62.1295  152.3794  -42.9936 H   0  0  0  0  0  0  0  0  0  0  0  0
   61.1250  153.1272  -41.8954 H   0  0  0  0  0  0  0  0  0  0  0  0
   62.4607  156.4091  -47.8715 H   0  0  0  0  0  0  0  0  0  0  0  0
   61.0513  156.0672  -45.9062 H   0  0  0  0  0  0  0  0  0  0  0  0
   62.9882  152.3663  -45.1308 H   0  0  0  0  0  0  0  0  0  0  0  0
   64.4140  152.6967  -47.1030 H   0  0  0  0  0  0  0  0  0  0  0  0
   68.9317  149.5501  -46.7804 H   0  0  0  0  0  0  0  0  0  0  0  0
   70.8184  148.0254  -46.3796 H   0  0  0  0  0  0  0  0  0  0  0  0
   72.8192  148.1480  -47.8024 H   0  0  0  0  0  0  0  0  0  0  0  0
   71.0655  151.3212  -50.0126 H   0  0  0  0  0  0  0  0  0  0  0  0
  1  8  2  0  0  0  0
  2  9  1  0  0  0  0
  2 28  1  0  0  0  0
  3 16  1  0  0  0  0
  3 29  1  0  0  0  0
  4  7  1  0  0  0  0
  4 30  1  0  0  0  0
  4 31  1  0  0  0  0
  5 32  1  0  0  0  0
  5 33  1  0  0  0  0
  6 25  1  0  0  0  0
  7  1  1  0  0  0  0
  7  6  2  0  0  0  0
  8  2  1  0  0  0  0
  8 25  1  0  0  0  0
  9 11  2  0  0  0  0
  9 15  1  0  0  0  0
 10  6  1  0  0  0  0
 10  3  1  0  0  0  0
 11 12  1  0  0  0  0
 11 34  1  0  0  0  0
 12 13  2  0  0  0  0
 12 35  1  0  0  0  0
 13 26  1  0  0  0  0
 14 13  1  0  0  0  0
 14 36  1  0  0  0  0
 15 14  2  0  0  0  0
 15 37  1  0  0  0  0
 16 17  2  0  0  0  0
 17 18  1  0  0  0  0
 17 38  1  0  0  0  0
 18 39  1  0  0  0  0
 19 18  2  0  0  0  0
 19 40  1  0  0  0  0
 20 19  1  0  0  0  0
 21 20  2  0  0  0  0
 21 16  1  0  0  0  0
 21 41  1  0  0  0  0
 22 10  2  0  0  0  0
 23 26  2  0  0  0  0
 26 24  2  0  0  0  0
 26  5  1  0  0  0  0
 27 20  1  0  0  0  0
M  END
>  <lm5_entropy_jk>
21.052089499889224

>  <number_of_rotatable_bonds>
6

>  <IC50_NM>
71000

>  <charge>
0

$$$$
