3R9N
 OpenBabel11252210453D

 42 44  0  0  1  0  0  0  0  0999 V2000
   68.3670  151.3100  -43.6150 N   0  3  0  0  0  0  0  0  0  0  0  0
   65.4430  154.1610  -49.5760 N   0  0  0  0  0  0  0  0  0  0  0  0
   64.0640  155.0530  -47.8550 N   0  0  0  0  0  0  0  0  0  0  0  0
   66.9530  152.9820  -50.9690 N   0  0  0  0  0  0  0  0  0  0  0  0
   68.3540  149.1140  -44.7860 C   0  0  0  0  0  0  0  0  0  0  0  0
   68.2480  150.6340  -44.7150 C   0  0  0  0  0  0  0  0  0  0  0  0
   67.9890  151.3380  -46.0380 C   0  0  0  0  0  0  0  0  0  0  0  0
   67.8480  150.6550  -47.2600 C   0  0  0  0  0  0  0  0  0  0  0  0
   67.9650  149.1240  -47.2570 C   0  0  0  0  0  0  0  0  0  0  0  0
   68.2010  148.4100  -46.0990 C   0  0  0  0  0  0  0  0  0  0  0  0
   67.6150  151.3360  -48.4520 C   0  0  0  0  0  0  0  0  0  0  0  0
   66.6480  152.4780  -48.5910 C   0  0  0  0  0  0  0  0  0  0  0  0
   66.3700  153.2010  -49.7530 C   0  0  0  0  0  0  0  0  0  0  0  0
   65.0140  154.1760  -48.2880 C   0  0  0  0  0  0  0  0  0  0  0  0
   63.4130  154.8460  -46.5560 C   0  0  0  0  0  0  0  0  0  0  0  0
   62.3230  153.6870  -46.6130 C   0  0  0  0  0  0  0  0  0  0  0  0
   61.6470  153.4840  -45.2320 C   0  0  0  0  0  0  0  0  0  0  0  0
   61.0220  154.8310  -44.7170 C   0  0  0  0  0  0  0  0  0  0  0  0
   62.0550  156.0050  -44.7070 C   0  0  0  0  0  0  0  0  0  0  0  0
   62.7570  156.1820  -46.0880 C   0  0  0  0  0  0  0  0  0  0  0  0
   68.2620  152.6420  -43.5870 O   0  5  0  0  0  0  0  0  0  0  0  0
   68.5760  150.7720  -42.5520 O   0  0  0  0  0  0  0  0  0  0  0  0
   68.2710  150.9670  -49.5600 O   0  0  0  0  0  0  0  0  0  0  0  0
   65.7380  153.0240  -47.2450 S   0  0  0  0  0  0  0  0  0  0  0  0
   68.5320  148.5700  -43.9280 H   0  0  0  0  0  0  0  0  0  0  0  0
   67.9130  152.3670  -46.0400 H   0  0  0  0  0  0  0  0  0  0  0  0
   63.8150  155.8250  -48.4130 H   0  0  0  0  0  0  0  0  0  0  0  0
   66.7020  153.5370  -51.7420 H   0  0  0  0  0  0  0  0  0  0  0  0
   67.6240  152.2690  -51.0720 H   0  0  0  0  0  0  0  0  0  0  0  0
   67.8640  148.6130  -48.1480 H   0  0  0  0  0  0  0  0  0  0  0  0
   68.2730  147.3810  -46.1390 H   0  0  0  0  0  0  0  0  0  0  0  0
   64.1610  154.5420  -45.8540 H   0  0  0  0  0  0  0  0  0  0  0  0
   62.7990  152.7750  -46.9060 H   0  0  0  0  0  0  0  0  0  0  0  0
   61.5700  153.9640  -47.3210 H   0  0  0  0  0  0  0  0  0  0  0  0
   62.3790  153.1450  -44.5290 H   0  0  0  0  0  0  0  0  0  0  0  0
   60.8670  152.7590  -45.3340 H   0  0  0  0  0  0  0  0  0  0  0  0
   60.6610  154.6830  -43.7210 H   0  0  0  0  0  0  0  0  0  0  0  0
   60.2310  155.0990  -45.3860 H   0  0  0  0  0  0  0  0  0  0  0  0
   61.5440  156.9120  -44.4610 H   0  0  0  0  0  0  0  0  0  0  0  0
   62.8080  155.7750  -43.9820 H   0  0  0  0  0  0  0  0  0  0  0  0
   62.0320  156.4890  -46.8130 H   0  0  0  0  0  0  0  0  0  0  0  0
   63.5230  156.9220  -45.9890 H   0  0  0  0  0  0  0  0  0  0  0  0
  1  6  1  0  0  0  0
  1 21  1  0  0  0  0
  1 22  2  0  0  0  0
  2 13  1  0  0  0  0
  2 14  2  0  0  0  0
  3 14  1  0  0  0  0
  3 15  1  0  0  0  0
  3 27  1  0  0  0  0
  4 13  1  0  0  0  0
  4 28  1  0  0  0  0
  4 29  1  0  0  0  0
  5  6  2  0  0  0  0
  5 10  1  0  0  0  0
  5 25  1  0  0  0  0
  6  7  1  0  0  0  0
  7  8  2  0  0  0  0
  7 26  1  0  0  0  0
  8  9  1  0  0  0  0
  9 10  2  0  0  0  0
  9 30  1  0  0  0  0
 10 31  1  0  0  0  0
 11  8  1  0  0  0  0
 11 12  1  0  0  0  0
 11 23  2  0  0  0  0
 12 13  2  0  0  0  0
 12 24  1  0  0  0  0
 14 24  1  0  0  0  0
 15 16  1  0  0  0  0
 15 20  1  0  0  0  0
 15 32  1  0  0  0  0
 16 17  1  0  0  0  0
 16 33  1  0  0  0  0
 16 34  1  0  0  0  0
 17 18  1  0  0  0  0
 17 35  1  0  0  0  0
 17 36  1  0  0  0  0
 18 19  1  0  0  0  0
 18 37  1  0  0  0  0
 18 38  1  0  0  0  0
 19 20  1  0  0  0  0
 19 39  1  0  0  0  0
 19 40  1  0  0  0  0
 20 41  1  0  0  0  0
 20 42  1  0  0  0  0
M  CHG  2   1   1  21  -1
M  END
>  <lm5_entropy_jk>
22.585594734129973

>  <number_of_rotatable_bonds>
5

>  <IC50_NM>
1400

>  <charge>
0

$$$$
