3RAH
 OpenBabel11252210453D

 46 49  0  0  1  0  0  0  0  0999 V2000
   65.4440  154.3660  -49.7340 N   0  0  0  0  0  0  0  0  0  0  0  0
   64.0840  155.3190  -48.0030 N   0  0  0  0  0  0  0  0  0  0  0  0
   66.9250  153.1200  -51.1170 N   0  0  0  0  0  0  0  0  0  0  0  0
   68.0540  149.3360  -44.9000 C   0  0  0  0  0  0  0  0  0  0  0  0
   67.8500  148.6250  -46.1370 C   0  0  0  0  0  0  0  0  0  0  0  0
   67.6940  149.3500  -47.3740 C   0  0  0  0  0  0  0  0  0  0  0  0
   67.9580  151.5350  -46.1580 C   0  0  0  0  0  0  0  0  0  0  0  0
   68.1120  150.8290  -44.9110 C   0  0  0  0  0  0  0  0  0  0  0  0
   68.2000  148.6290  -43.6450 C   0  0  0  0  0  0  0  0  0  0  0  0
   68.4000  149.3700  -42.4180 C   0  0  0  0  0  0  0  0  0  0  0  0
   68.4580  150.8150  -42.4270 C   0  0  0  0  0  0  0  0  0  0  0  0
   68.3170  151.5480  -43.6650 C   0  0  0  0  0  0  0  0  0  0  0  0
   67.7410  150.8090  -47.4210 C   0  0  0  0  0  0  0  0  0  0  0  0
   67.5610  151.4940  -48.5770 C   0  0  0  0  0  0  0  0  0  0  0  0
   66.6260  152.6610  -48.7330 C   0  0  0  0  0  0  0  0  0  0  0  0
   66.3570  153.3750  -49.9020 C   0  0  0  0  0  0  0  0  0  0  0  0
   65.0240  154.4140  -48.4370 C   0  0  0  0  0  0  0  0  0  0  0  0
   63.4510  155.1240  -46.6900 C   0  0  0  0  0  0  0  0  0  0  0  0
   62.3880  153.9730  -46.7290 C   0  0  0  0  0  0  0  0  0  0  0  0
   61.7330  153.7670  -45.3400 C   0  0  0  0  0  0  0  0  0  0  0  0
   61.1050  155.0850  -44.8160 C   0  0  0  0  0  0  0  0  0  0  0  0
   62.1120  156.2640  -44.8310 C   0  0  0  0  0  0  0  0  0  0  0  0
   62.7840  156.4430  -46.2160 C   0  0  0  0  0  0  0  0  0  0  0  0
   68.2150  151.0780  -49.6940 O   0  0  0  0  0  0  0  0  0  0  0  0
   65.7400  153.2630  -47.4000 S   0  0  0  0  0  0  0  0  0  0  0  0
   67.8154  147.5936  -46.1376 H   0  0  0  0  0  0  0  0  0  0  0  0
   67.5452  148.8238  -48.2492 H   0  0  0  0  0  0  0  0  0  0  0  0
   63.8375  156.0888  -48.5650 H   0  0  0  0  0  0  0  0  0  0  0  0
   68.0005  152.5661  -46.1661 H   0  0  0  0  0  0  0  0  0  0  0  0
   66.6841  153.6690  -51.8979 H   0  0  0  0  0  0  0  0  0  0  0  0
   67.5755  152.3872  -51.2122 H   0  0  0  0  0  0  0  0  0  0  0  0
   68.1615  147.5979  -43.6254 H   0  0  0  0  0  0  0  0  0  0  0  0
   68.5024  148.8612  -41.5260 H   0  0  0  0  0  0  0  0  0  0  0  0
   68.6012  151.3270  -41.5425 H   0  0  0  0  0  0  0  0  0  0  0  0
   68.3618  152.5790  -43.6639 H   0  0  0  0  0  0  0  0  0  0  0  0
   64.2171  154.8436  -45.9976 H   0  0  0  0  0  0  0  0  0  0  0  0
   62.8684  153.0643  -47.0264 H   0  0  0  0  0  0  0  0  0  0  0  0
   61.6233  154.2420  -47.4274 H   0  0  0  0  0  0  0  0  0  0  0  0
   62.4789  153.4362  -44.6478 H   0  0  0  0  0  0  0  0  0  0  0  0
   60.9573  153.0363  -45.4358 H   0  0  0  0  0  0  0  0  0  0  0  0
   60.7705  154.9311  -43.8113 H   0  0  0  0  0  0  0  0  0  0  0  0
   60.2926  155.3404  -45.4638 H   0  0  0  0  0  0  0  0  0  0  0  0
   61.5914  157.1649  -44.5817 H   0  0  0  0  0  0  0  0  0  0  0  0
   62.8807  156.0483  -44.1186 H   0  0  0  0  0  0  0  0  0  0  0  0
   62.0416  156.7348  -46.9292 H   0  0  0  0  0  0  0  0  0  0  0  0
   63.5410  157.1944  -46.1311 H   0  0  0  0  0  0  0  0  0  0  0  0
  1 17  2  0  0  0  0
  2 18  1  0  0  0  0
  2 28  1  0  0  0  0
  3 16  1  0  0  0  0
  3 30  1  0  0  0  0
  3 31  1  0  0  0  0
  4  9  1  0  0  0  0
  5  4  2  0  0  0  0
  5 26  1  0  0  0  0
  6  5  1  0  0  0  0
  6 27  1  0  0  0  0
  7  8  2  0  0  0  0
  7 29  1  0  0  0  0
  8  4  1  0  0  0  0
  8 12  1  0  0  0  0
  9 10  2  0  0  0  0
  9 32  1  0  0  0  0
 10 33  1  0  0  0  0
 11 10  1  0  0  0  0
 11 34  1  0  0  0  0
 12 11  2  0  0  0  0
 12 35  1  0  0  0  0
 13  6  2  0  0  0  0
 13  7  1  0  0  0  0
 14 13  1  0  0  0  0
 14 24  2  0  0  0  0
 15 14  1  0  0  0  0
 15 25  1  0  0  0  0
 16  1  1  0  0  0  0
 16 15  2  0  0  0  0
 17  2  1  0  0  0  0
 17 25  1  0  0  0  0
 18 23  1  0  0  0  0
 18 36  1  0  0  0  0
 19 18  1  0  0  0  0
 19 20  1  0  0  0  0
 19 37  1  0  0  0  0
 19 38  1  0  0  0  0
 20 21  1  0  0  0  0
 20 39  1  0  0  0  0
 20 40  1  0  0  0  0
 21 41  1  0  0  0  0
 21 42  1  0  0  0  0
 22 21  1  0  0  0  0
 22 43  1  0  0  0  0
 22 44  1  0  0  0  0
 23 22  1  0  0  0  0
 23 45  1  0  0  0  0
 23 46  1  0  0  0  0
M  END
>  <lm5_entropy_jk>
20.76925268888156

>  <number_of_rotatable_bonds>
4

>  <IC50_NM>
12000

>  <charge>
0

$$$$
