3RAK
 OpenBabel11252210453D

 39 41  0  0  1  0  0  0  0  0999 V2000
   65.5660  154.2700  -50.5050 N   0  0  0  0  0  0  0  0  0  0  0  0
   67.0900  153.4710  -52.1130 N   0  0  0  0  0  0  0  0  0  0  0  0
   64.2200  154.8530  -48.6960 N   0  0  0  0  0  0  0  0  0  0  0  0
   61.5160  153.1720  -42.9180 N   0  0  0  0  0  0  0  0  0  0  0  0
   69.5200  149.3480  -46.5040 C   0  0  0  0  0  0  0  0  0  0  0  0
   70.4920  150.1240  -47.2590 C   0  0  0  0  0  0  0  0  0  0  0  0
   70.0870  150.9200  -48.3780 C   0  0  0  0  0  0  0  0  0  0  0  0
   67.6980  150.1720  -48.0180 C   0  0  0  0  0  0  0  0  0  0  0  0
   68.0970  149.3750  -46.8940 C   0  0  0  0  0  0  0  0  0  0  0  0
   68.6870  150.9610  -48.7760 C   0  0  0  0  0  0  0  0  0  0  0  0
   68.2510  151.7740  -49.9370 C   0  0  0  0  0  0  0  0  0  0  0  0
   67.1130  152.7370  -49.8270 C   0  0  0  0  0  0  0  0  0  0  0  0
   66.6110  153.4930  -50.8530 C   0  0  0  0  0  0  0  0  0  0  0  0
   65.2650  154.1260  -49.2130 C   0  0  0  0  0  0  0  0  0  0  0  0
   63.4410  154.5880  -47.5900 C   0  0  0  0  0  0  0  0  0  0  0  0
   63.6060  153.3990  -46.7240 C   0  0  0  0  0  0  0  0  0  0  0  0
   62.7670  153.1810  -45.6100 C   0  0  0  0  0  0  0  0  0  0  0  0
   61.7310  154.1370  -45.3120 C   0  0  0  0  0  0  0  0  0  0  0  0
   61.5560  155.3160  -46.1510 C   0  0  0  0  0  0  0  0  0  0  0  0
   62.3900  155.5410  -47.2660 C   0  0  0  0  0  0  0  0  0  0  0  0
   59.5650  152.9640  -44.5810 O   0  0  0  0  0  0  0  0  0  0  0  0
   60.2000  155.3280  -43.5610 O   0  0  0  0  0  0  0  0  0  0  0  0
   68.8670  151.6350  -51.1220 O   0  0  0  0  0  0  0  0  0  0  0  0
   66.2810  153.0050  -48.3730 S   0  0  0  0  0  0  0  0  0  0  0  0
   60.7530  153.9050  -44.0680 S   0  0  0  0  0  0  0  0  0  0  0  0
   69.8250  148.7800  -45.6980 H   0  0  0  0  0  0  0  0  0  0  0  0
   71.4870  150.1000  -46.9840 H   0  0  0  0  0  0  0  0  0  0  0  0
   66.6820  154.0410  -52.8050 H   0  0  0  0  0  0  0  0  0  0  0  0
   67.8480  152.8850  -52.3410 H   0  0  0  0  0  0  0  0  0  0  0  0
   70.7880  151.4650  -48.9030 H   0  0  0  0  0  0  0  0  0  0  0  0
   63.9960  155.6780  -49.1840 H   0  0  0  0  0  0  0  0  0  0  0  0
   66.7050  150.1940  -48.3000 H   0  0  0  0  0  0  0  0  0  0  0  0
   61.8590  152.2730  -43.2570 H   0  0  0  0  0  0  0  0  0  0  0  0
   60.8830  153.0200  -42.1330 H   0  0  0  0  0  0  0  0  0  0  0  0
   67.3990  148.8280  -46.3660 H   0  0  0  0  0  0  0  0  0  0  0  0
   64.3490  152.7160  -46.9390 H   0  0  0  0  0  0  0  0  0  0  0  0
   62.8940  152.3470  -45.0160 H   0  0  0  0  0  0  0  0  0  0  0  0
   60.8120  155.9950  -45.9260 H   0  0  0  0  0  0  0  0  0  0  0  0
   62.2550  156.3800  -47.8510 H   0  0  0  0  0  0  0  0  0  0  0  0
  1 13  1  0  0  0  0
  1 14  2  0  0  0  0
  2 13  1  0  0  0  0
  2 28  1  0  0  0  0
  2 29  1  0  0  0  0
  3 14  1  0  0  0  0
  3 15  1  0  0  0  0
  3 31  1  0  0  0  0
  4 25  1  0  0  0  0
  4 33  1  0  0  0  0
  4 34  1  0  0  0  0
  5  6  2  0  0  0  0
  5  9  1  0  0  0  0
  5 26  1  0  0  0  0
  6  7  1  0  0  0  0
  6 27  1  0  0  0  0
  7 10  2  0  0  0  0
  7 30  1  0  0  0  0
  8  9  2  0  0  0  0
  8 10  1  0  0  0  0
  8 32  1  0  0  0  0
  9 35  1  0  0  0  0
 11 10  1  0  0  0  0
 11 12  1  0  0  0  0
 11 23  2  0  0  0  0
 12 13  2  0  0  0  0
 12 24  1  0  0  0  0
 14 24  1  0  0  0  0
 15 16  2  0  0  0  0
 15 20  1  0  0  0  0
 16 17  1  0  0  0  0
 16 36  1  0  0  0  0
 17 18  2  0  0  0  0
 17 37  1  0  0  0  0
 18 19  1  0  0  0  0
 18 25  1  0  0  0  0
 19 20  2  0  0  0  0
 19 38  1  0  0  0  0
 20 39  1  0  0  0  0
 21 25  2  0  0  0  0
 22 25  2  0  0  0  0
M  END
>  <lm5_entropy_jk>
22.952794734129974

>  <number_of_rotatable_bonds>
5

>  <IC50_NM>
130

>  <charge>
0

$$$$
