3RAL
 OpenBabel11252210453D

 43 45  0  0  1  0  0  0  0  0999 V2000
   65.6280  154.3500  -50.3960 N   0  0  0  0  0  0  0  0  0  0  0  0
   67.1850  153.5620  -51.9820 N   0  0  0  0  0  0  0  0  0  0  0  0
   64.2490  154.9190  -48.6020 N   0  0  0  0  0  0  0  0  0  0  0  0
   61.4280  153.1920  -42.8830 N   0  0  0  0  0  0  0  0  0  0  0  0
   69.3690  149.4960  -46.1960 C   0  0  0  0  0  0  0  0  0  0  0  0
   70.3680  150.3700  -46.8080 C   0  0  0  0  0  0  0  0  0  0  0  0
   70.0380  151.1400  -47.9790 C   0  0  0  0  0  0  0  0  0  0  0  0
   67.7080  150.1690  -47.9370 C   0  0  0  0  0  0  0  0  0  0  0  0
   68.0240  149.3960  -46.7730 C   0  0  0  0  0  0  0  0  0  0  0  0
   72.0790  149.8340  -45.1900 C   0  0  0  0  0  0  0  0  0  0  0  0
   68.7000  151.0510  -48.5600 C   0  0  0  0  0  0  0  0  0  0  0  0
   68.3150  151.8460  -49.7680 C   0  0  0  0  0  0  0  0  0  0  0  0
   67.1660  152.8030  -49.6930 C   0  0  0  0  0  0  0  0  0  0  0  0
   66.6810  153.5730  -50.7330 C   0  0  0  0  0  0  0  0  0  0  0  0
   65.2990  154.1940  -49.1080 C   0  0  0  0  0  0  0  0  0  0  0  0
   63.4500  154.6570  -47.5050 C   0  0  0  0  0  0  0  0  0  0  0  0
   63.5980  153.4680  -46.6290 C   0  0  0  0  0  0  0  0  0  0  0  0
   62.7370  153.2540  -45.5310 C   0  0  0  0  0  0  0  0  0  0  0  0
   61.6910  154.2120  -45.2490 C   0  0  0  0  0  0  0  0  0  0  0  0
   61.5330  155.3920  -46.0910 C   0  0  0  0  0  0  0  0  0  0  0  0
   62.3960  155.6120  -47.1990 C   0  0  0  0  0  0  0  0  0  0  0  0
   59.4780  153.0690  -44.5640 O   0  0  0  0  0  0  0  0  0  0  0  0
   60.1560  155.4080  -43.4630 O   0  0  0  0  0  0  0  0  0  0  0  0
   68.9770  151.7070  -50.9390 O   0  0  0  0  0  0  0  0  0  0  0  0
   71.6570  150.4880  -46.2740 O   0  0  0  0  0  0  0  0  0  0  0  0
   66.2870  153.0610  -48.2530 S   0  0  0  0  0  0  0  0  0  0  0  0
   60.6960  153.9690  -44.0170 S   0  0  0  0  0  0  0  0  0  0  0  0
   69.6100  148.9480  -45.3560 H   0  0  0  0  0  0  0  0  0  0  0  0
   66.7910  154.1370  -52.6770 H   0  0  0  0  0  0  0  0  0  0  0  0
   67.9480  152.9790  -52.2000 H   0  0  0  0  0  0  0  0  0  0  0  0
   70.7470  151.7550  -48.4080 H   0  0  0  0  0  0  0  0  0  0  0  0
   64.0340  155.7460  -49.0910 H   0  0  0  0  0  0  0  0  0  0  0  0
   66.7630  150.1040  -48.3460 H   0  0  0  0  0  0  0  0  0  0  0  0
   61.7590  152.2970  -43.2430 H   0  0  0  0  0  0  0  0  0  0  0  0
   60.7820  153.0300  -42.1100 H   0  0  0  0  0  0  0  0  0  0  0  0
   67.3160  148.7780  -46.3470 H   0  0  0  0  0  0  0  0  0  0  0  0
   73.0970  150.0960  -44.9890 H   0  0  0  0  0  0  0  0  0  0  0  0
   72.0080  148.7800  -45.3590 H   0  0  0  0  0  0  0  0  0  0  0  0
   71.4700  150.1020  -44.3520 H   0  0  0  0  0  0  0  0  0  0  0  0
   64.3450  152.7840  -46.8270 H   0  0  0  0  0  0  0  0  0  0  0  0
   62.8530  152.4200  -44.9340 H   0  0  0  0  0  0  0  0  0  0  0  0
   60.7870  156.0740  -45.8810 H   0  0  0  0  0  0  0  0  0  0  0  0
   62.2750  156.4510  -47.7880 H   0  0  0  0  0  0  0  0  0  0  0  0
  1 14  1  0  0  0  0
  1 15  2  0  0  0  0
  2 14  1  0  0  0  0
  2 29  1  0  0  0  0
  2 30  1  0  0  0  0
  3 15  1  0  0  0  0
  3 16  1  0  0  0  0
  3 32  1  0  0  0  0
  4 27  1  0  0  0  0
  4 34  1  0  0  0  0
  4 35  1  0  0  0  0
  5  6  2  0  0  0  0
  5  9  1  0  0  0  0
  5 28  1  0  0  0  0
  6  7  1  0  0  0  0
  6 25  1  0  0  0  0
  7 11  2  0  0  0  0
  7 31  1  0  0  0  0
  8  9  2  0  0  0  0
  8 11  1  0  0  0  0
  8 33  1  0  0  0  0
  9 36  1  0  0  0  0
 10 25  1  0  0  0  0
 10 37  1  0  0  0  0
 10 38  1  0  0  0  0
 10 39  1  0  0  0  0
 12 11  1  0  0  0  0
 12 13  1  0  0  0  0
 12 24  2  0  0  0  0
 13 14  2  0  0  0  0
 13 26  1  0  0  0  0
 15 26  1  0  0  0  0
 16 17  2  0  0  0  0
 16 21  1  0  0  0  0
 17 18  1  0  0  0  0
 17 40  1  0  0  0  0
 18 19  2  0  0  0  0
 18 41  1  0  0  0  0
 19 20  1  0  0  0  0
 19 27  1  0  0  0  0
 20 21  2  0  0  0  0
 20 42  1  0  0  0  0
 21 43  1  0  0  0  0
 22 27  2  0  0  0  0
 23 27  2  0  0  0  0
M  END
>  <lm5_entropy_jk>
33.50945403317048

>  <number_of_rotatable_bonds>
6

>  <IC50_NM>
100

>  <charge>
0

$$$$
