3RJC
 OpenBabel11252210453D

 34 36  0  0  0  0  0  0  0  0999 V2000
   65.4090  154.1230  -50.3920 N   0  0  0  0  0  0  0  0  0  0  0  0
   66.5060  153.3380  -50.6720 C   0  0  0  0  0  0  0  0  0  0  0  0
   66.9750  153.2980  -51.9090 N   0  0  0  0  0  0  0  0  0  0  0  0
   67.0580  152.5920  -49.6030 C   0  0  0  0  0  0  0  0  0  0  0  0
   68.2040  151.6780  -49.7010 C   0  0  0  0  0  0  0  0  0  0  0  0
   68.6830  150.8790  -48.5060 C   0  0  0  0  0  0  0  0  0  0  0  0
   67.7440  150.1160  -47.6800 C   0  0  0  0  0  0  0  0  0  0  0  0
   68.1970  149.3490  -46.5580 C   0  0  0  0  0  0  0  0  0  0  0  0
   69.6010  149.3250  -46.2400 C   0  0  0  0  0  0  0  0  0  0  0  0
   70.5460  150.0710  -47.0460 C   0  0  0  0  0  0  0  0  0  0  0  0
   70.0910  150.8470  -48.1780 C   0  0  0  0  0  0  0  0  0  0  0  0
   68.7980  151.5100  -50.7950 O   0  0  0  0  0  0  0  0  0  0  0  0
   66.1100  152.9560  -48.1770 S   0  0  0  0  0  0  0  0  0  0  0  0
   65.0850  154.0180  -49.1370 C   0  0  0  0  0  0  0  0  0  0  0  0
   63.9940  154.7080  -48.6550 N   0  0  0  0  0  0  0  0  0  0  0  0
   63.3680  154.8040  -47.3790 C   0  0  0  0  0  0  0  0  0  0  0  0
   62.5310  155.9360  -47.0080 C   0  0  0  0  0  0  0  0  0  0  0  0
   61.9280  155.9590  -45.6780 C   0  0  0  0  0  0  0  0  0  0  0  0
   62.1260  154.9040  -44.7130 C   0  0  0  0  0  0  0  0  0  0  0  0
   62.9590  153.7710  -45.0900 C   0  0  0  0  0  0  0  0  0  0  0  0
   63.5740  153.7170  -46.4070 C   0  0  0  0  0  0  0  0  0  0  0  0
   61.1580  157.0200  -45.3530 F   0  0  0  0  0  0  0  0  0  0  0  0
   66.5510  153.8389  -52.6139 H   0  0  0  0  0  0  0  0  0  0  0  0
   67.7479  152.7274  -52.1242 H   0  0  0  0  0  0  0  0  0  0  0  0
   66.7382  150.1313  -47.9105 H   0  0  0  0  0  0  0  0  0  0  0  0
   67.5235  148.8188  -45.9833 H   0  0  0  0  0  0  0  0  0  0  0  0
   69.9358  148.7739  -45.4343 H   0  0  0  0  0  0  0  0  0  0  0  0
   71.5505  150.0484  -46.8106 H   0  0  0  0  0  0  0  0  0  0  0  0
   70.7683  151.3758  -48.7495 H   0  0  0  0  0  0  0  0  0  0  0  0
   63.5499  155.2543  -49.3432 H   0  0  0  0  0  0  0  0  0  0  0  0
   62.3668  156.7081  -47.6727 H   0  0  0  0  0  0  0  0  0  0  0  0
   61.6883  154.9516  -43.7796 H   0  0  0  0  0  0  0  0  0  0  0  0
   63.1139  153.0022  -44.4193 H   0  0  0  0  0  0  0  0  0  0  0  0
   64.1612  152.9080  -46.6631 H   0  0  0  0  0  0  0  0  0  0  0  0
  1 14  2  0  0  0  0
  2  1  1  0  0  0  0
  2  4  2  0  0  0  0
  3  2  1  0  0  0  0
  3 23  1  0  0  0  0
  3 24  1  0  0  0  0
  4 13  1  0  0  0  0
  5  4  1  0  0  0  0
  5  6  1  0  0  0  0
  6 11  2  0  0  0  0
  6  7  1  0  0  0  0
  7  8  2  0  0  0  0
  7 25  1  0  0  0  0
  8  9  1  0  0  0  0
  8 26  1  0  0  0  0
  9 27  1  0  0  0  0
 10  9  2  0  0  0  0
 10 28  1  0  0  0  0
 11 10  1  0  0  0  0
 11 29  1  0  0  0  0
 12  5  2  0  0  0  0
 14 15  1  0  0  0  0
 14 13  1  0  0  0  0
 15 16  1  0  0  0  0
 15 30  1  0  0  0  0
 16 17  2  0  0  0  0
 16 21  1  0  0  0  0
 17 18  1  0  0  0  0
 17 31  1  0  0  0  0
 18 22  1  0  0  0  0
 18 19  2  0  0  0  0
 19 32  1  0  0  0  0
 20 19  1  0  0  0  0
 20 33  1  0  0  0  0
 21 20  2  0  0  0  0
 21 34  1  0  0  0  0
M  END
>  <lm5_entropy_jk>
20.581653483104166

>  <number_of_rotatable_bonds>
4

>  <IC50_NM>
5700

>  <charge>
0

$$$$
