3RK5
 OpenBabel11252210453D

 35 37  0  0  1  0  0  0  0  0999 V2000
   64.0500  154.6910  -48.8330 N   0  0  0  0  0  0  0  0  0  0  0  0
   65.5700  154.2440  -50.5260 N   0  0  0  0  0  0  0  0  0  0  0  0
   67.1730  153.5850  -51.9990 N   0  0  0  0  0  0  0  0  0  0  0  0
   70.4150  149.9240  -47.3490 N   0  0  0  0  0  0  0  0  0  0  0  0
   63.4180  154.6170  -47.6190 C   0  0  0  0  0  0  0  0  0  0  0  0
   65.1660  154.0270  -49.2730 C   0  0  0  0  0  0  0  0  0  0  0  0
   66.6430  153.5240  -50.8320 C   0  0  0  0  0  0  0  0  0  0  0  0
   67.0940  152.7150  -49.7950 C   0  0  0  0  0  0  0  0  0  0  0  0
   68.2620  151.7870  -49.8700 C   0  0  0  0  0  0  0  0  0  0  0  0
   68.6850  150.9020  -48.7430 C   0  0  0  0  0  0  0  0  0  0  0  0
   67.7190  150.1350  -47.9890 C   0  0  0  0  0  0  0  0  0  0  0  0
   68.1270  149.2820  -46.9250 C   0  0  0  0  0  0  0  0  0  0  0  0
   69.5000  149.1910  -46.6170 C   0  0  0  0  0  0  0  0  0  0  0  0
   70.0540  150.7680  -48.3930 C   0  0  0  0  0  0  0  0  0  0  0  0
   62.5370  155.6920  -47.2650 C   0  0  0  0  0  0  0  0  0  0  0  0
   61.8310  155.6770  -46.0440 C   0  0  0  0  0  0  0  0  0  0  0  0
   61.9750  154.5850  -45.1260 C   0  0  0  0  0  0  0  0  0  0  0  0
   62.8550  153.5040  -45.4640 C   0  0  0  0  0  0  0  0  0  0  0  0
   63.5640  153.5160  -46.6910 C   0  0  0  0  0  0  0  0  0  0  0  0
   61.2090  154.5990  -43.8480 C   0  0  0  0  0  0  0  0  0  0  0  0
   68.9560  151.7300  -51.0270 O   0  0  0  0  0  0  0  0  0  0  0  0
   60.3860  155.6480  -43.5910 O   0  0  0  0  0  0  0  0  0  0  0  0
   61.3080  153.5570  -42.9020 O   0  5  0  0  0  0  0  0  0  0  0  0
   66.1380  152.8910  -48.3820 S   0  0  0  0  0  0  0  0  0  0  0  0
   63.6440  155.3100  -49.4820 H   0  0  0  0  0  0  0  0  0  0  0  0
   66.7940  154.1850  -52.6810 H   0  0  0  0  0  0  0  0  0  0  0  0
   67.9590  153.0320  -52.2120 H   0  0  0  0  0  0  0  0  0  0  0  0
   66.7170  150.2070  -48.2260 H   0  0  0  0  0  0  0  0  0  0  0  0
   67.4310  148.7400  -46.3890 H   0  0  0  0  0  0  0  0  0  0  0  0
   69.8200  148.5800  -45.8490 H   0  0  0  0  0  0  0  0  0  0  0  0
   70.7760  151.2930  -48.9100 H   0  0  0  0  0  0  0  0  0  0  0  0
   62.4180  156.4870  -47.9120 H   0  0  0  0  0  0  0  0  0  0  0  0
   61.2030  156.4620  -45.8080 H   0  0  0  0  0  0  0  0  0  0  0  0
   62.9720  152.7140  -44.8110 H   0  0  0  0  0  0  0  0  0  0  0  0
   64.1910  152.7310  -46.9250 H   0  0  0  0  0  0  0  0  0  0  0  0
  1  5  1  0  0  0  0
  1  6  1  0  0  0  0
  1 25  1  0  0  0  0
  2  6  2  0  0  0  0
  2  7  1  0  0  0  0
  3  7  1  0  0  0  0
  3 26  1  0  0  0  0
  3 27  1  0  0  0  0
  4 13  2  0  0  0  0
  4 14  1  0  0  0  0
  5 15  2  0  0  0  0
  5 19  1  0  0  0  0
  6 24  1  0  0  0  0
  7  8  2  0  0  0  0
  8 24  1  0  0  0  0
  9  8  1  0  0  0  0
  9 10  1  0  0  0  0
  9 21  2  0  0  0  0
 10 11  1  0  0  0  0
 10 14  2  0  0  0  0
 11 12  2  0  0  0  0
 11 28  1  0  0  0  0
 12 13  1  0  0  0  0
 12 29  1  0  0  0  0
 13 30  1  0  0  0  0
 14 31  1  0  0  0  0
 15 16  1  0  0  0  0
 15 32  1  0  0  0  0
 16 17  2  0  0  0  0
 16 33  1  0  0  0  0
 17 18  1  0  0  0  0
 17 20  1  0  0  0  0
 18 19  2  0  0  0  0
 18 34  1  0  0  0  0
 19 35  1  0  0  0  0
 20 22  2  0  0  0  0
 20 23  1  0  0  0  0
M  CHG  1  23  -1
M  END
>  <lm5_entropy_jk>
20.582349174783765

>  <number_of_rotatable_bonds>
5

>  <IC50_NM>
4000

>  <charge>
-1

$$$$
