3RK7
 OpenBabel11252210453D

 37 39  0  0  1  0  0  0  0  0999 V2000
   64.2740  154.6600  -48.6550 N   0  0  0  0  0  0  0  0  0  0  0  0
   65.7130  154.1930  -50.4350 N   0  0  0  0  0  0  0  0  0  0  0  0
   67.2650  153.4770  -51.9500 N   0  0  0  0  0  0  0  0  0  0  0  0
   70.6000  149.7780  -47.4450 N   0  0  0  0  0  0  0  0  0  0  0  0
   61.8660  153.5070  -42.6570 N   0  0  0  0  0  0  0  0  0  0  0  0
   63.7210  154.5930  -47.3980 C   0  0  0  0  0  0  0  0  0  0  0  0
   65.3680  153.9900  -49.1540 C   0  0  0  0  0  0  0  0  0  0  0  0
   66.7790  153.4520  -50.7750 C   0  0  0  0  0  0  0  0  0  0  0  0
   67.2660  152.6590  -49.7520 C   0  0  0  0  0  0  0  0  0  0  0  0
   68.4190  151.7250  -49.8800 C   0  0  0  0  0  0  0  0  0  0  0  0
   68.8700  150.8250  -48.7780 C   0  0  0  0  0  0  0  0  0  0  0  0
   67.8920  150.0720  -48.0130 C   0  0  0  0  0  0  0  0  0  0  0  0
   68.2920  149.1960  -46.9780 C   0  0  0  0  0  0  0  0  0  0  0  0
   69.6750  149.0600  -46.7040 C   0  0  0  0  0  0  0  0  0  0  0  0
   70.2440  150.6500  -48.4700 C   0  0  0  0  0  0  0  0  0  0  0  0
   63.0120  155.7500  -46.8990 C   0  0  0  0  0  0  0  0  0  0  0  0
   62.4060  155.7300  -45.6140 C   0  0  0  0  0  0  0  0  0  0  0  0
   62.4820  154.5530  -44.7860 C   0  0  0  0  0  0  0  0  0  0  0  0
   63.1800  153.4040  -45.2760 C   0  0  0  0  0  0  0  0  0  0  0  0
   63.7890  153.4210  -46.5580 C   0  0  0  0  0  0  0  0  0  0  0  0
   61.8300  154.5470  -43.4390 C   0  0  0  0  0  0  0  0  0  0  0  0
   69.0610  151.6770  -51.0490 O   0  0  0  0  0  0  0  0  0  0  0  0
   61.1820  155.6590  -43.0250 O   0  0  0  0  0  0  0  0  0  0  0  0
   66.3920  152.8610  -48.3100 S   0  0  0  0  0  0  0  0  0  0  0  0
   63.8260  155.2710  -49.2840 H   0  0  0  0  0  0  0  0  0  0  0  0
   66.8700  154.0660  -52.6330 H   0  0  0  0  0  0  0  0  0  0  0  0
   68.0360  152.9080  -52.1760 H   0  0  0  0  0  0  0  0  0  0  0  0
   66.8880  150.1780  -48.2280 H   0  0  0  0  0  0  0  0  0  0  0  0
   67.5920  148.6670  -46.4340 H   0  0  0  0  0  0  0  0  0  0  0  0
   69.9930  148.4270  -45.9540 H   0  0  0  0  0  0  0  0  0  0  0  0
   70.9680  151.1610  -48.9980 H   0  0  0  0  0  0  0  0  0  0  0  0
   62.9450  156.5990  -47.4820 H   0  0  0  0  0  0  0  0  0  0  0  0
   61.9070  156.5660  -45.2710 H   0  0  0  0  0  0  0  0  0  0  0  0
   63.2410  152.5550  -44.6920 H   0  0  0  0  0  0  0  0  0  0  0  0
   64.2880  152.5830  -46.8950 H   0  0  0  0  0  0  0  0  0  0  0  0
   62.3340  152.6900  -42.9450 H   0  0  0  0  0  0  0  0  0  0  0  0
   61.4250  153.5370  -41.7770 H   0  0  0  0  0  0  0  0  0  0  0  0
  1  6  1  0  0  0  0
  1  7  1  0  0  0  0
  1 25  1  0  0  0  0
  2  7  2  0  0  0  0
  2  8  1  0  0  0  0
  3  8  1  0  0  0  0
  3 26  1  0  0  0  0
  3 27  1  0  0  0  0
  4 14  2  0  0  0  0
  4 15  1  0  0  0  0
  5 21  1  0  0  0  0
  5 36  1  0  0  0  0
  5 37  1  0  0  0  0
  6 16  2  0  0  0  0
  6 20  1  0  0  0  0
  7 24  1  0  0  0  0
  8  9  2  0  0  0  0
  9 24  1  0  0  0  0
 10  9  1  0  0  0  0
 10 11  1  0  0  0  0
 10 22  2  0  0  0  0
 11 12  1  0  0  0  0
 11 15  2  0  0  0  0
 12 13  2  0  0  0  0
 12 28  1  0  0  0  0
 13 14  1  0  0  0  0
 13 29  1  0  0  0  0
 14 30  1  0  0  0  0
 15 31  1  0  0  0  0
 16 17  1  0  0  0  0
 16 32  1  0  0  0  0
 17 18  2  0  0  0  0
 17 33  1  0  0  0  0
 18 19  1  0  0  0  0
 18 21  1  0  0  0  0
 19 20  2  0  0  0  0
 19 34  1  0  0  0  0
 20 35  1  0  0  0  0
 21 23  2  0  0  0  0
M  END
>  <lm5_entropy_jk>
19.089102203703476

>  <number_of_rotatable_bonds>
5

>  <IC50_NM>
200

>  <charge>
0

$$$$
