3RK9
 OpenBabel11252210453D

 32 33  0  0  1  0  0  0  0  0999 V2000
   64.3990  154.9280  -48.3560 N   0  0  0  0  0  0  0  0  0  0  0  0
   65.7500  154.3630  -50.2430 N   0  0  0  0  0  0  0  0  0  0  0  0
   67.2410  153.5320  -51.7820 N   0  0  0  0  0  0  0  0  0  0  0  0
   70.5720  149.8410  -47.2150 N   0  0  0  0  0  0  0  0  0  0  0  0
   63.0130  155.7810  -46.5240 C   0  0  0  0  0  0  0  0  0  0  0  0
   63.8440  154.5710  -47.0370 C   0  0  0  0  0  0  0  0  0  0  0  0
   62.9270  153.3250  -47.1460 C   0  0  0  0  0  0  0  0  0  0  0  0
   65.4320  154.1980  -48.9310 C   0  0  0  0  0  0  0  0  0  0  0  0
   66.7650  153.5600  -50.5810 C   0  0  0  0  0  0  0  0  0  0  0  0
   67.2270  152.7780  -49.5570 C   0  0  0  0  0  0  0  0  0  0  0  0
   68.3540  151.7770  -49.6910 C   0  0  0  0  0  0  0  0  0  0  0  0
   68.8110  150.8990  -48.5850 C   0  0  0  0  0  0  0  0  0  0  0  0
   67.8320  150.1830  -47.7790 C   0  0  0  0  0  0  0  0  0  0  0  0
   68.2380  149.3140  -46.7020 C   0  0  0  0  0  0  0  0  0  0  0  0
   69.6280  149.1580  -46.4350 C   0  0  0  0  0  0  0  0  0  0  0  0
   70.2170  150.7110  -48.2900 C   0  0  0  0  0  0  0  0  0  0  0  0
   68.9590  151.6580  -50.8940 O   0  0  0  0  0  0  0  0  0  0  0  0
   66.3810  153.0590  -48.1090 S   0  0  0  0  0  0  0  0  0  0  0  0
   63.6450  156.6410  -46.4480 H   0  0  0  0  0  0  0  0  0  0  0  0
   62.6060  155.5520  -45.5610 H   0  0  0  0  0  0  0  0  0  0  0  0
   62.2160  155.9830  -47.2090 H   0  0  0  0  0  0  0  0  0  0  0  0
   64.6410  154.3400  -46.3620 H   0  0  0  0  0  0  0  0  0  0  0  0
   62.1210  153.5330  -47.8180 H   0  0  0  0  0  0  0  0  0  0  0  0
   62.5340  153.0860  -46.1800 H   0  0  0  0  0  0  0  0  0  0  0  0
   63.4940  152.4960  -47.5150 H   0  0  0  0  0  0  0  0  0  0  0  0
   64.0290  155.7010  -48.8400 H   0  0  0  0  0  0  0  0  0  0  0  0
   66.8640  154.1210  -52.4750 H   0  0  0  0  0  0  0  0  0  0  0  0
   67.9810  152.9220  -52.0040 H   0  0  0  0  0  0  0  0  0  0  0  0
   66.8270  150.3000  -47.9830 H   0  0  0  0  0  0  0  0  0  0  0  0
   67.5350  148.8150  -46.1360 H   0  0  0  0  0  0  0  0  0  0  0  0
   69.9400  148.5420  -45.6680 H   0  0  0  0  0  0  0  0  0  0  0  0
   70.9430  151.1930  -48.8420 H   0  0  0  0  0  0  0  0  0  0  0  0
  1  6  1  0  0  0  0
  1  8  1  0  0  0  0
  1 26  1  0  0  0  0
  2  8  2  0  0  0  0
  2  9  1  0  0  0  0
  3  9  1  0  0  0  0
  3 27  1  0  0  0  0
  3 28  1  0  0  0  0
  4 15  2  0  0  0  0
  4 16  1  0  0  0  0
  5  6  1  0  0  0  0
  5 19  1  0  0  0  0
  5 20  1  0  0  0  0
  5 21  1  0  0  0  0
  6  7  1  0  0  0  0
  6 22  1  0  0  0  0
  7 23  1  0  0  0  0
  7 24  1  0  0  0  0
  7 25  1  0  0  0  0
  8 18  1  0  0  0  0
  9 10  2  0  0  0  0
 10 18  1  0  0  0  0
 11 10  1  0  0  0  0
 11 12  1  0  0  0  0
 11 17  2  0  0  0  0
 12 13  1  0  0  0  0
 12 16  2  0  0  0  0
 13 14  2  0  0  0  0
 13 29  1  0  0  0  0
 14 15  1  0  0  0  0
 14 30  1  0  0  0  0
 15 31  1  0  0  0  0
 16 32  1  0  0  0  0
M  END
>  <lm5_entropy_jk>
34.96174716553827

>  <number_of_rotatable_bonds>
4

>  <IC50_NM>
520

>  <charge>
0

$$$$
