3RKB
 OpenBabel11252210453D

 39 41  0  0  0  0  0  0  0  0999 V2000
   67.1980  152.7100  -49.5910 C   0  0  0  0  0  0  0  0  0  0  0  0
   66.6950  153.4720  -50.5980 C   0  0  0  0  0  0  0  0  0  0  0  0
   65.6480  154.2970  -50.2130 N   0  0  0  0  0  0  0  0  0  0  0  0
   65.3480  154.1670  -48.9320 C   0  0  0  0  0  0  0  0  0  0  0  0
   66.3430  153.0210  -48.0780 S   0  0  0  0  0  0  0  0  0  0  0  0
   68.3100  151.7240  -49.6730 C   0  0  0  0  0  0  0  0  0  0  0  0
   67.1400  153.4650  -51.9030 N   0  0  0  0  0  0  0  0  0  0  0  0
   64.3430  154.8410  -48.3090 N   0  0  0  0  0  0  0  0  0  0  0  0
   68.9770  151.6560  -50.7270 O   0  0  0  0  0  0  0  0  0  0  0  0
   69.3310  149.1220  -46.3700 C   0  0  0  0  0  0  0  0  0  0  0  0
   70.3190  149.7680  -47.0720 N   0  0  0  0  0  0  0  0  0  0  0  0
   69.9710  150.5930  -48.1190 C   0  0  0  0  0  0  0  0  0  0  0  0
   68.6090  150.8110  -48.5170 C   0  0  0  0  0  0  0  0  0  0  0  0
   67.5850  150.1160  -47.7710 C   0  0  0  0  0  0  0  0  0  0  0  0
   67.9410  149.2630  -46.6830 C   0  0  0  0  0  0  0  0  0  0  0  0
   62.3780  153.3990  -45.3700 C   0  0  0  0  0  0  0  0  0  0  0  0
   62.9390  153.5240  -46.8070 C   0  0  0  0  0  0  0  0  0  0  0  0
   63.8700  154.7810  -46.9520 C   0  0  0  0  0  0  0  0  0  0  0  0
   63.0860  156.0660  -46.5630 C   0  0  0  0  0  0  0  0  0  0  0  0
   62.5690  155.9590  -45.1000 C   0  0  0  0  0  0  0  0  0  0  0  0
   61.6590  154.7090  -44.9230 C   0  0  0  0  0  0  0  0  0  0  0  0
   66.7166  154.0517  -52.5706 H   0  0  0  0  0  0  0  0  0  0  0  0
   67.8812  152.8733  -52.1672 H   0  0  0  0  0  0  0  0  0  0  0  0
   63.8583  155.4765  -48.8839 H   0  0  0  0  0  0  0  0  0  0  0  0
   69.6016  148.5097  -45.5846 H   0  0  0  0  0  0  0  0  0  0  0  0
   70.7210  151.0746  -48.6391 H   0  0  0  0  0  0  0  0  0  0  0  0
   66.5923  150.2368  -48.0258 H   0  0  0  0  0  0  0  0  0  0  0  0
   67.2195  148.7640  -46.1395 H   0  0  0  0  0  0  0  0  0  0  0  0
   63.1856  153.1984  -44.6974 H   0  0  0  0  0  0  0  0  0  0  0  0
   61.6644  152.6018  -45.3556 H   0  0  0  0  0  0  0  0  0  0  0  0
   63.5030  152.6446  -47.0382 H   0  0  0  0  0  0  0  0  0  0  0  0
   62.1157  153.6354  -47.4812 H   0  0  0  0  0  0  0  0  0  0  0  0
   64.7107  154.7065  -46.2942 H   0  0  0  0  0  0  0  0  0  0  0  0
   62.2532  156.1854  -47.2241 H   0  0  0  0  0  0  0  0  0  0  0  0
   63.7391  156.9100  -46.6411 H   0  0  0  0  0  0  0  0  0  0  0  0
   62.0072  156.8379  -44.8617 H   0  0  0  0  0  0  0  0  0  0  0  0
   63.4105  155.8648  -44.4459 H   0  0  0  0  0  0  0  0  0  0  0  0
   61.3890  154.6208  -43.8914 H   0  0  0  0  0  0  0  0  0  0  0  0
   60.7933  154.8389  -45.5382 H   0  0  0  0  0  0  0  0  0  0  0  0
  1  5  1  0  0  0  0
  2  3  1  0  0  0  0
  2  1  2  0  0  0  0
  3  4  2  0  0  0  0
  4  8  1  0  0  0  0
  4  5  1  0  0  0  0
  6  1  1  0  0  0  0
  6 13  1  0  0  0  0
  7  2  1  0  0  0  0
  7 22  1  0  0  0  0
  7 23  1  0  0  0  0
  8 18  1  0  0  0  0
  8 24  1  0  0  0  0
  9  6  2  0  0  0  0
 10 25  1  0  0  0  0
 11 10  2  0  0  0  0
 12 11  1  0  0  0  0
 12 26  1  0  0  0  0
 13 12  2  0  0  0  0
 13 14  1  0  0  0  0
 14 15  2  0  0  0  0
 14 27  1  0  0  0  0
 15 10  1  0  0  0  0
 15 28  1  0  0  0  0
 16 21  1  0  0  0  0
 16 29  1  0  0  0  0
 16 30  1  0  0  0  0
 17 16  1  0  0  0  0
 17 31  1  0  0  0  0
 17 32  1  0  0  0  0
 18 17  1  0  0  0  0
 18 19  1  0  0  0  0
 18 33  1  0  0  0  0
 19 20  1  0  0  0  0
 19 34  1  0  0  0  0
 19 35  1  0  0  0  0
 20 21  1  0  0  0  0
 20 36  1  0  0  0  0
 20 37  1  0  0  0  0
 21 38  1  0  0  0  0
 21 39  1  0  0  0  0
M  END
>  <lm5_entropy_jk>
20.214453483104165

>  <number_of_rotatable_bonds>
4

>  <IC50_NM>
380

>  <charge>
0

$$$$
