3RMF
 OpenBabel11252210453D

 45 48  0  0  0  0  0  0  0  0999 V2000
   65.5170  154.2320  -50.5390 N   0  0  0  0  0  0  0  0  0  0  0  0
   64.3130  154.8300  -48.7110 N   0  0  0  0  0  0  0  0  0  0  0  0
   66.9940  153.3710  -52.1060 N   0  0  0  0  0  0  0  0  0  0  0  0
   61.5780  153.1460  -42.7830 N   0  0  0  0  0  0  0  0  0  0  0  0
   67.1970  152.7050  -49.8610 C   0  0  0  0  0  0  0  0  0  0  0  0
   66.5950  153.4300  -50.8990 C   0  0  0  0  0  0  0  0  0  0  0  0
   65.2860  154.1340  -49.2490 C   0  0  0  0  0  0  0  0  0  0  0  0
   63.5820  154.5860  -47.6610 C   0  0  0  0  0  0  0  0  0  0  0  0
   68.2980  151.8310  -49.9790 C   0  0  0  0  0  0  0  0  0  0  0  0
   68.8270  151.1690  -48.8740 C   0  0  0  0  0  0  0  0  0  0  0  0
   70.2350  151.2340  -48.6180 C   0  0  0  0  0  0  0  0  0  0  0  0
   70.7970  150.5760  -47.4880 C   0  0  0  0  0  0  0  0  0  0  0  0
   69.9720  149.8380  -46.5810 C   0  0  0  0  0  0  0  0  0  0  0  0
   68.5390  149.7590  -46.8290 C   0  0  0  0  0  0  0  0  0  0  0  0
   67.9900  150.4240  -47.9730 C   0  0  0  0  0  0  0  0  0  0  0  0
   62.5070  155.4890  -47.4000 C   0  0  0  0  0  0  0  0  0  0  0  0
   61.6600  155.3020  -46.2870 C   0  0  0  0  0  0  0  0  0  0  0  0
   61.8700  154.2080  -45.4060 C   0  0  0  0  0  0  0  0  0  0  0  0
   62.9370  153.2950  -45.6410 C   0  0  0  0  0  0  0  0  0  0  0  0
   63.7900  153.4790  -46.7580 C   0  0  0  0  0  0  0  0  0  0  0  0
   70.5180  149.1760  -45.4330 C   0  0  0  0  0  0  0  0  0  0  0  0
   69.6750  148.4490  -44.5420 C   0  0  0  0  0  0  0  0  0  0  0  0
   68.2770  148.3710  -44.7870 C   0  0  0  0  0  0  0  0  0  0  0  0
   67.7130  149.0220  -45.9220 C   0  0  0  0  0  0  0  0  0  0  0  0
   68.8290  151.6690  -51.0690 O   0  0  0  0  0  0  0  0  0  0  0  0
   59.6590  153.1700  -44.4630 O   0  0  0  0  0  0  0  0  0  0  0  0
   60.3010  155.2600  -43.5270 O   0  0  0  0  0  0  0  0  0  0  0  0
   66.3570  153.0680  -48.3940 S   0  0  0  0  0  0  0  0  0  0  0  0
   60.7770  153.9740  -44.0150 S   0  0  0  0  0  0  0  0  0  0  0  0
   64.1013  155.6719  -49.1754 H   0  0  0  0  0  0  0  0  0  0  0  0
   66.5390  153.8991  -52.8012 H   0  0  0  0  0  0  0  0  0  0  0  0
   67.7577  152.7973  -52.3445 H   0  0  0  0  0  0  0  0  0  0  0  0
   61.9070  152.2472  -43.1355 H   0  0  0  0  0  0  0  0  0  0  0  0
   60.9373  152.9919  -42.0045 H   0  0  0  0  0  0  0  0  0  0  0  0
   70.8473  151.7627  -49.2587 H   0  0  0  0  0  0  0  0  0  0  0  0
   71.8138  150.6319  -47.3204 H   0  0  0  0  0  0  0  0  0  0  0  0
   66.9755  150.3673  -48.1537 H   0  0  0  0  0  0  0  0  0  0  0  0
   62.3476  156.2882  -48.0332 H   0  0  0  0  0  0  0  0  0  0  0  0
   60.8859  155.9619  -46.1127 H   0  0  0  0  0  0  0  0  0  0  0  0
   63.0890  152.5010  -44.9995 H   0  0  0  0  0  0  0  0  0  0  0  0
   64.5642  152.8178  -46.9267 H   0  0  0  0  0  0  0  0  0  0  0  0
   71.5323  149.2261  -45.2493 H   0  0  0  0  0  0  0  0  0  0  0  0
   70.0805  147.9786  -43.7178 H   0  0  0  0  0  0  0  0  0  0  0  0
   67.6696  147.8420  -44.1418 H   0  0  0  0  0  0  0  0  0  0  0  0
   66.6969  148.9613  -46.0920 H   0  0  0  0  0  0  0  0  0  0  0  0
  1  7  2  0  0  0  0
  2  8  1  0  0  0  0
  2 30  1  0  0  0  0
  3  6  1  0  0  0  0
  3 31  1  0  0  0  0
  3 32  1  0  0  0  0
  4 33  1  0  0  0  0
  4 34  1  0  0  0  0
  5 28  1  0  0  0  0
  6  1  1  0  0  0  0
  6  5  2  0  0  0  0
  7  2  1  0  0  0  0
  7 28  1  0  0  0  0
  8 16  2  0  0  0  0
  8 20  1  0  0  0  0
  9  5  1  0  0  0  0
  9 10  1  0  0  0  0
 10 11  2  0  0  0  0
 10 15  1  0  0  0  0
 11 12  1  0  0  0  0
 11 35  1  0  0  0  0
 12 13  2  0  0  0  0
 12 36  1  0  0  0  0
 13 21  1  0  0  0  0
 14 13  1  0  0  0  0
 14 24  1  0  0  0  0
 15 14  2  0  0  0  0
 15 37  1  0  0  0  0
 16 17  1  0  0  0  0
 16 38  1  0  0  0  0
 17 18  2  0  0  0  0
 17 39  1  0  0  0  0
 18 29  1  0  0  0  0
 19 18  1  0  0  0  0
 19 40  1  0  0  0  0
 20 19  2  0  0  0  0
 20 41  1  0  0  0  0
 21 22  2  0  0  0  0
 21 42  1  0  0  0  0
 22 43  1  0  0  0  0
 23 22  1  0  0  0  0
 23 44  1  0  0  0  0
 24 23  2  0  0  0  0
 24 45  1  0  0  0  0
 25  9  2  0  0  0  0
 26 29  2  0  0  0  0
 29 27  2  0  0  0  0
 29  4  1  0  0  0  0
M  END
>  <lm5_entropy_jk>
22.397995528352578

>  <number_of_rotatable_bonds>
5

>  <IC50_NM>
82000

>  <charge>
0

$$$$
