3RNI
 OpenBabel11252210453D

 39 41  0  0  0  0  0  0  0  0999 V2000
   65.3960  154.1870  -50.4810 N   0  0  0  0  0  0  0  0  0  0  0  0
   64.1500  154.7440  -48.6680 N   0  0  0  0  0  0  0  0  0  0  0  0
   66.9330  153.3190  -51.9930 N   0  0  0  0  0  0  0  0  0  0  0  0
   61.6830  158.4160  -46.1350 N   0  0  0  0  0  0  0  0  0  0  0  0
   67.1050  152.7250  -49.7330 C   0  0  0  0  0  0  0  0  0  0  0  0
   66.5050  153.4070  -50.8000 C   0  0  0  0  0  0  0  0  0  0  0  0
   65.1500  154.1030  -49.1850 C   0  0  0  0  0  0  0  0  0  0  0  0
   68.2160  151.8750  -49.8180 C   0  0  0  0  0  0  0  0  0  0  0  0
   63.6510  154.6370  -47.4650 C   0  0  0  0  0  0  0  0  0  0  0  0
   68.5720  151.0330  -48.7700 C   0  0  0  0  0  0  0  0  0  0  0  0
   62.9960  155.7730  -46.9250 C   0  0  0  0  0  0  0  0  0  0  0  0
   62.4260  155.7340  -45.6320 C   0  0  0  0  0  0  0  0  0  0  0  0
   62.5010  154.5550  -44.8430 C   0  0  0  0  0  0  0  0  0  0  0  0
   63.1500  153.3970  -45.3600 C   0  0  0  0  0  0  0  0  0  0  0  0
   63.7210  153.4340  -46.6670 C   0  0  0  0  0  0  0  0  0  0  0  0
   67.6230  150.1260  -48.1880 C   0  0  0  0  0  0  0  0  0  0  0  0
   68.0070  149.2750  -47.1140 C   0  0  0  0  0  0  0  0  0  0  0  0
   69.3320  149.3160  -46.6140 C   0  0  0  0  0  0  0  0  0  0  0  0
   70.2830  150.2060  -47.1840 C   0  0  0  0  0  0  0  0  0  0  0  0
   69.9050  151.0620  -48.2580 C   0  0  0  0  0  0  0  0  0  0  0  0
   68.8870  151.8590  -50.8400 O   0  0  0  0  0  0  0  0  0  0  0  0
   60.2120  156.8450  -44.7430 O   0  0  0  0  0  0  0  0  0  0  0  0
   62.2550  157.5810  -43.7460 O   0  0  0  0  0  0  0  0  0  0  0  0
   66.2430  153.0930  -48.2930 S   0  0  0  0  0  0  0  0  0  0  0  0
   61.6070  157.1800  -44.9930 S   0  0  0  0  0  0  0  0  0  0  0  0
   63.7085  155.3967  -49.2582 H   0  0  0  0  0  0  0  0  0  0  0  0
   66.4832  153.8144  -52.7151 H   0  0  0  0  0  0  0  0  0  0  0  0
   67.7144  152.7554  -52.1953 H   0  0  0  0  0  0  0  0  0  0  0  0
   61.2252  158.1132  -46.9947 H   0  0  0  0  0  0  0  0  0  0  0  0
   62.6590  158.6393  -46.3299 H   0  0  0  0  0  0  0  0  0  0  0  0
   62.9347  156.6390  -47.4830 H   0  0  0  0  0  0  0  0  0  0  0  0
   62.0865  154.5375  -43.8980 H   0  0  0  0  0  0  0  0  0  0  0  0
   63.2068  152.5368  -44.7927 H   0  0  0  0  0  0  0  0  0  0  0  0
   64.1877  152.5951  -47.0456 H   0  0  0  0  0  0  0  0  0  0  0  0
   66.6574  150.0911  -48.5505 H   0  0  0  0  0  0  0  0  0  0  0  0
   67.3194  148.6271  -46.6988 H   0  0  0  0  0  0  0  0  0  0  0  0
   69.6074  148.6985  -45.8344 H   0  0  0  0  0  0  0  0  0  0  0  0
   71.2481  150.2319  -46.8193 H   0  0  0  0  0  0  0  0  0  0  0  0
   70.5983  151.7068  -48.6685 H   0  0  0  0  0  0  0  0  0  0  0  0
  1  7  2  0  0  0  0
  2  9  1  0  0  0  0
  2 26  1  0  0  0  0
  3  6  1  0  0  0  0
  3 27  1  0  0  0  0
  3 28  1  0  0  0  0
  4 25  1  0  0  0  0
  4 29  1  0  0  0  0
  4 30  1  0  0  0  0
  5 24  1  0  0  0  0
  6  1  1  0  0  0  0
  6  5  2  0  0  0  0
  7  2  1  0  0  0  0
  7 24  1  0  0  0  0
  8  5  1  0  0  0  0
  8 10  1  0  0  0  0
  9 11  2  0  0  0  0
  9 15  1  0  0  0  0
 10 20  2  0  0  0  0
 10 16  1  0  0  0  0
 11 12  1  0  0  0  0
 11 31  1  0  0  0  0
 12 25  1  0  0  0  0
 12 13  2  0  0  0  0
 13 32  1  0  0  0  0
 14 13  1  0  0  0  0
 14 33  1  0  0  0  0
 15 14  2  0  0  0  0
 15 34  1  0  0  0  0
 16 17  2  0  0  0  0
 16 35  1  0  0  0  0
 17 18  1  0  0  0  0
 17 36  1  0  0  0  0
 18 37  1  0  0  0  0
 19 18  2  0  0  0  0
 19 38  1  0  0  0  0
 20 19  1  0  0  0  0
 20 39  1  0  0  0  0
 21  8  2  0  0  0  0
 25 22  2  0  0  0  0
 25 23  2  0  0  0  0
M  END
>  <lm5_entropy_jk>
22.397995528352578

>  <number_of_rotatable_bonds>
5

>  <IC50_NM>
6700

>  <charge>
0

$$$$
