3RPV
 OpenBabel11252210453D

 41 43  0  0  0  0  0  0  0  0999 V2000
   65.5770  154.2550  -50.4700 N   0  0  0  0  0  0  0  0  0  0  0  0
   64.3360  154.8500  -48.6570 N   0  0  0  0  0  0  0  0  0  0  0  0
   67.1000  153.3890  -52.0120 N   0  0  0  0  0  0  0  0  0  0  0  0
   67.6010  148.9220  -46.1010 N   0  0  0  0  0  0  0  0  0  0  0  0
   61.6730  153.0450  -42.7880 N   0  0  0  0  0  0  0  0  0  0  0  0
   67.2630  152.7390  -49.7710 C   0  0  0  0  0  0  0  0  0  0  0  0
   66.6750  153.4520  -50.8140 C   0  0  0  0  0  0  0  0  0  0  0  0
   65.3240  154.1610  -49.1870 C   0  0  0  0  0  0  0  0  0  0  0  0
   63.6070  154.5860  -47.6070 C   0  0  0  0  0  0  0  0  0  0  0  0
   68.3710  151.8740  -49.8840 C   0  0  0  0  0  0  0  0  0  0  0  0
   68.8220  151.0860  -48.8080 C   0  0  0  0  0  0  0  0  0  0  0  0
   70.2190  151.0040  -48.5380 C   0  0  0  0  0  0  0  0  0  0  0  0
   70.7010  150.2220  -47.4540 C   0  0  0  0  0  0  0  0  0  0  0  0
   69.8000  149.5080  -46.6180 C   0  0  0  0  0  0  0  0  0  0  0  0
   68.4080  149.5690  -46.8650 C   0  0  0  0  0  0  0  0  0  0  0  0
   67.9110  150.3560  -47.9600 C   0  0  0  0  0  0  0  0  0  0  0  0
   63.7510  153.4080  -46.8010 C   0  0  0  0  0  0  0  0  0  0  0  0
   62.9070  153.2020  -45.6860 C   0  0  0  0  0  0  0  0  0  0  0  0
   61.9170  154.1650  -45.3670 C   0  0  0  0  0  0  0  0  0  0  0  0
   61.7680  155.3340  -46.1520 C   0  0  0  0  0  0  0  0  0  0  0  0
   62.6000  155.5410  -47.2550 C   0  0  0  0  0  0  0  0  0  0  0  0
   68.9760  151.8130  -50.9570 O   0  0  0  0  0  0  0  0  0  0  0  0
   59.7510  153.0910  -44.4820 O   0  0  0  0  0  0  0  0  0  0  0  0
   60.3410  155.1670  -43.4830 O   0  0  0  0  0  0  0  0  0  0  0  0
   66.3830  153.1130  -48.3210 S   0  0  0  0  0  0  0  0  0  0  0  0
   60.8480  153.8960  -43.9920 S   0  0  0  0  0  0  0  0  0  0  0  0
   64.1137  155.6891  -49.1214 H   0  0  0  0  0  0  0  0  0  0  0  0
   66.6557  153.9092  -52.7199 H   0  0  0  0  0  0  0  0  0  0  0  0
   67.8731  152.8201  -52.2308 H   0  0  0  0  0  0  0  0  0  0  0  0
   66.6311  148.9589  -46.2657 H   0  0  0  0  0  0  0  0  0  0  0  0
   67.9531  148.3897  -45.3514 H   0  0  0  0  0  0  0  0  0  0  0  0
   62.0159  152.1632  -43.1691 H   0  0  0  0  0  0  0  0  0  0  0  0
   61.0401  152.8562  -42.0107 H   0  0  0  0  0  0  0  0  0  0  0  0
   70.8863  151.5171  -49.1350 H   0  0  0  0  0  0  0  0  0  0  0  0
   71.7155  150.1719  -47.2718 H   0  0  0  0  0  0  0  0  0  0  0  0
   70.1608  148.9456  -45.8315 H   0  0  0  0  0  0  0  0  0  0  0  0
   66.8959  150.3993  -48.1410 H   0  0  0  0  0  0  0  0  0  0  0  0
   64.4729  152.7089  -47.0359 H   0  0  0  0  0  0  0  0  0  0  0  0
   63.0111  152.3543  -45.1068 H   0  0  0  0  0  0  0  0  0  0  0  0
   61.0467  156.0313  -45.9100 H   0  0  0  0  0  0  0  0  0  0  0  0
   62.4872  156.3944  -47.8242 H   0  0  0  0  0  0  0  0  0  0  0  0
  1  8  2  0  0  0  0
  2  9  1  0  0  0  0
  2 27  1  0  0  0  0
  3  7  1  0  0  0  0
  3 28  1  0  0  0  0
  3 29  1  0  0  0  0
  4 30  1  0  0  0  0
  4 31  1  0  0  0  0
  5 32  1  0  0  0  0
  5 33  1  0  0  0  0
  6 25  1  0  0  0  0
  7  1  1  0  0  0  0
  7  6  2  0  0  0  0
  8  2  1  0  0  0  0
  8 25  1  0  0  0  0
  9 21  2  0  0  0  0
  9 17  1  0  0  0  0
 10  6  1  0  0  0  0
 10 11  1  0  0  0  0
 11 12  2  0  0  0  0
 11 16  1  0  0  0  0
 12 13  1  0  0  0  0
 12 34  1  0  0  0  0
 13 14  2  0  0  0  0
 13 35  1  0  0  0  0
 14 36  1  0  0  0  0
 15 14  1  0  0  0  0
 15  4  1  0  0  0  0
 16 15  2  0  0  0  0
 16 37  1  0  0  0  0
 17 18  2  0  0  0  0
 17 38  1  0  0  0  0
 18 19  1  0  0  0  0
 18 39  1  0  0  0  0
 19 26  1  0  0  0  0
 20 19  2  0  0  0  0
 20 40  1  0  0  0  0
 21 20  1  0  0  0  0
 21 41  1  0  0  0  0
 22 10  2  0  0  0  0
 23 26  2  0  0  0  0
 26 24  2  0  0  0  0
 26  5  1  0  0  0  0
M  END
>  <lm5_entropy_jk>
21.154920599914565

>  <number_of_rotatable_bonds>
5

>  <IC50_NM>
70

>  <charge>
0

$$$$
