3RPY
 OpenBabel11252210453D

 31 32  0  0  0  0  0  0  0  0999 V2000
   68.3530  151.8740  -49.7290 C   0  0  0  0  0  0  0  0  0  0  0  0
   65.5490  154.2130  -50.4460 N   0  0  0  0  0  0  0  0  0  0  0  0
   59.5270  152.9600  -44.4400 O   0  0  0  0  0  0  0  0  0  0  0  0
   66.2670  153.0790  -48.2530 S   0  0  0  0  0  0  0  0  0  0  0  0
   67.1210  153.4210  -52.0040 N   0  0  0  0  0  0  0  0  0  0  0  0
   60.1130  155.3620  -43.4880 O   0  0  0  0  0  0  0  0  0  0  0  0
   60.7130  153.9230  -43.9670 S   0  0  0  0  0  0  0  0  0  0  0  0
   64.1610  154.8120  -48.6590 N   0  0  0  0  0  0  0  0  0  0  0  0
   61.4840  153.2210  -42.8100 N   0  0  0  0  0  0  0  0  0  0  0  0
   67.1640  152.7720  -49.6800 C   0  0  0  0  0  0  0  0  0  0  0  0
   66.6340  153.4650  -50.7510 C   0  0  0  0  0  0  0  0  0  0  0  0
   65.2330  154.1120  -49.1560 C   0  0  0  0  0  0  0  0  0  0  0  0
   63.3880  154.5540  -47.5520 C   0  0  0  0  0  0  0  0  0  0  0  0
   63.5740  153.3730  -46.6310 C   0  0  0  0  0  0  0  0  0  0  0  0
   62.7340  153.1770  -45.5050 C   0  0  0  0  0  0  0  0  0  0  0  0
   61.6690  154.1400  -45.2310 C   0  0  0  0  0  0  0  0  0  0  0  0
   61.4710  155.2990  -46.1120 C   0  0  0  0  0  0  0  0  0  0  0  0
   62.3110  155.5030  -47.2520 C   0  0  0  0  0  0  0  0  0  0  0  0
   68.9740  151.6910  -50.7830 O   0  0  0  0  0  0  0  0  0  0  0  0
   68.7020  151.2780  -48.5880 N   0  0  0  0  0  0  0  0  0  0  0  0
   66.6897  153.9433  -52.7184 H   0  0  0  0  0  0  0  0  0  0  0  0
   67.9088  152.8665  -52.2067 H   0  0  0  0  0  0  0  0  0  0  0  0
   63.9097  155.6152  -49.1698 H   0  0  0  0  0  0  0  0  0  0  0  0
   61.8471  152.3258  -43.1374 H   0  0  0  0  0  0  0  0  0  0  0  0
   60.8512  153.0648  -42.0254 H   0  0  0  0  0  0  0  0  0  0  0  0
   64.3273  152.6946  -46.8243 H   0  0  0  0  0  0  0  0  0  0  0  0
   62.8732  152.3632  -44.8858 H   0  0  0  0  0  0  0  0  0  0  0  0
   60.7175  155.9735  -45.9062 H   0  0  0  0  0  0  0  0  0  0  0  0
   62.1587  156.3196  -47.8644 H   0  0  0  0  0  0  0  0  0  0  0  0
   69.4798  150.6749  -48.5655 H   0  0  0  0  0  0  0  0  0  0  0  0
   68.1818  151.4412  -47.7682 H   0  0  0  0  0  0  0  0  0  0  0  0
  1 10  1  0  0  0  0
  1 20  1  0  0  0  0
  2 12  2  0  0  0  0
  3  7  2  0  0  0  0
  5 11  1  0  0  0  0
  5 21  1  0  0  0  0
  5 22  1  0  0  0  0
  7  6  2  0  0  0  0
  7  9  1  0  0  0  0
  8 13  1  0  0  0  0
  8 23  1  0  0  0  0
  9 24  1  0  0  0  0
  9 25  1  0  0  0  0
 10  4  1  0  0  0  0
 11  2  1  0  0  0  0
 11 10  2  0  0  0  0
 12  8  1  0  0  0  0
 12  4  1  0  0  0  0
 13 18  2  0  0  0  0
 13 14  1  0  0  0  0
 14 15  2  0  0  0  0
 14 26  1  0  0  0  0
 15 16  1  0  0  0  0
 15 27  1  0  0  0  0
 16  7  1  0  0  0  0
 17 16  2  0  0  0  0
 17 28  1  0  0  0  0
 18 17  1  0  0  0  0
 18 29  1  0  0  0  0
 19  1  2  0  0  0  0
 20 30  1  0  0  0  0
 20 31  1  0  0  0  0
M  END
>  <lm5_entropy_jk>
19.643205717801273

>  <number_of_rotatable_bonds>
4

>  <IC50_NM>
4800

>  <charge>
0

$$$$
