3S00
 OpenBabel11252210453D

 28 29  0  0  1  0  0  0  0  0999 V2000
   65.4770  154.2270  -50.0550 N   0  0  0  0  0  0  0  0  0  0  0  0
   66.8320  153.0960  -51.4070 N   0  0  0  0  0  0  0  0  0  0  0  0
   64.1470  155.2240  -48.4200 N   0  0  0  0  0  0  0  0  0  0  0  0
   66.4030  153.2230  -50.1420 C   0  0  0  0  0  0  0  0  0  0  0  0
   66.7470  152.5230  -49.0160 C   0  0  0  0  0  0  0  0  0  0  0  0
   67.6940  151.4220  -48.8920 C   0  0  0  0  0  0  0  0  0  0  0  0
   67.8620  150.6840  -47.6060 C   0  0  0  0  0  0  0  0  0  0  0  0
   65.0800  154.3100  -48.8000 C   0  0  0  0  0  0  0  0  0  0  0  0
   63.7240  155.4290  -47.0390 C   0  0  0  0  0  0  0  0  0  0  0  0
   62.3810  156.1630  -46.9820 C   0  0  0  0  0  0  0  0  0  0  0  0
   61.9350  156.3850  -45.5480 C   0  0  0  0  0  0  0  0  0  0  0  0
   68.2960  148.8600  -45.9800 C   0  0  0  0  0  0  0  0  0  0  0  0
   68.0140  150.0360  -45.3440 C   0  0  0  0  0  0  0  0  0  0  0  0
   67.7600  151.0990  -46.2780 C   0  0  0  0  0  0  0  0  0  0  0  0
   68.3440  151.0850  -49.8950 O   0  0  0  0  0  0  0  0  0  0  0  0
   68.6750  147.3120  -45.2110 Cl  0  0  0  0  0  0  0  0  0  0  0  0
   65.8390  153.1680  -47.7280 S   0  0  0  0  0  0  0  0  0  0  0  0
   68.2620  148.9960  -47.6700 S   0  0  0  0  0  0  0  0  0  0  0  0
   66.4780  153.6890  -52.1090 H   0  0  0  0  0  0  0  0  0  0  0  0
   67.5010  152.4100  -51.6330 H   0  0  0  0  0  0  0  0  0  0  0  0
   63.7320  155.7800  -49.1190 H   0  0  0  0  0  0  0  0  0  0  0  0
   64.4630  156.0110  -46.5290 H   0  0  0  0  0  0  0  0  0  0  0  0
   63.6120  154.4740  -46.5700 H   0  0  0  0  0  0  0  0  0  0  0  0
   67.9870  150.1480  -44.3180 H   0  0  0  0  0  0  0  0  0  0  0  0
   67.5270  152.0640  -45.9970 H   0  0  0  0  0  0  0  0  0  0  0  0
   60.9862  156.8810  -45.3433 H   0  0  0  0  0  0  0  0  0  0  0  0
   62.5629  156.0475  -44.7236 H   0  0  0  0  0  0  0  0  0  0  0  0
   61.8180  156.4850  -47.8580 H   0  0  0  0  0  0  0  0  0  0  0  0
  1  4  1  0  0  0  0
  1  8  2  0  0  0  0
  2  4  1  0  0  0  0
  2 19  1  0  0  0  0
  2 20  1  0  0  0  0
  3  8  1  0  0  0  0
  3  9  1  0  0  0  0
  3 21  1  0  0  0  0
  4  5  2  0  0  0  0
  5  6  1  0  0  0  0
  5 17  1  0  0  0  0
  6  7  1  0  0  0  0
  6 15  2  0  0  0  0
  7 14  2  0  0  0  0
  7 18  1  0  0  0  0
  8 17  1  0  0  0  0
  9 10  1  0  0  0  0
  9 22  1  0  0  0  0
  9 23  1  0  0  0  0
 10 11  2  0  0  0  0
 10 28  1  0  0  0  0
 11 26  1  0  0  0  0
 11 27  1  0  0  0  0
 12 13  2  0  0  0  0
 12 16  1  0  0  0  0
 12 18  1  0  0  0  0
 13 14  1  0  0  0  0
 13 24  1  0  0  0  0
 14 25  1  0  0  0  0
M  END
>  <lm5_entropy_jk>
31.418959509749985

>  <number_of_rotatable_bonds>
5

>  <IC50_NM>
12000

>  <charge>
0

$$$$
