3S0O
 OpenBabel11252210453D

 30 31  0  0  1  0  0  0  0  0999 V2000
   65.3770  154.2970  -50.4120 N   0  0  0  0  0  0  0  0  0  0  0  0
   66.8440  153.1460  -51.8270 N   0  0  0  0  0  0  0  0  0  0  0  0
   67.6200  151.6110  -46.7390 N   0  0  0  0  0  0  0  0  0  0  0  0
   64.0160  155.2400  -48.7110 N   0  0  0  0  0  0  0  0  0  0  0  0
   66.3300  153.3610  -50.5950 C   0  0  0  0  0  0  0  0  0  0  0  0
   66.6920  152.6720  -49.4230 C   0  0  0  0  0  0  0  0  0  0  0  0
   67.6160  151.6540  -49.2980 C   0  0  0  0  0  0  0  0  0  0  0  0
   67.9020  150.9760  -47.9840 C   0  0  0  0  0  0  0  0  0  0  0  0
   67.8890  150.9530  -45.5050 C   0  0  0  0  0  0  0  0  0  0  0  0
   68.4290  149.6850  -45.5120 C   0  0  0  0  0  0  0  0  0  0  0  0
   68.7150  149.0380  -46.6950 C   0  0  0  0  0  0  0  0  0  0  0  0
   68.4600  149.6620  -47.9510 C   0  0  0  0  0  0  0  0  0  0  0  0
   64.9880  154.3560  -49.1210 C   0  0  0  0  0  0  0  0  0  0  0  0
   63.5690  155.3060  -47.3240 C   0  0  0  0  0  0  0  0  0  0  0  0
   62.6130  154.1800  -46.9920 C   0  0  0  0  0  0  0  0  0  0  0  0
   62.9100  153.2220  -45.9090 C   0  0  0  0  0  0  0  0  0  0  0  0
   68.2930  151.2010  -50.3880 O   0  0  0  0  0  0  0  0  0  0  0  0
   65.7920  153.2560  -48.0770 S   0  0  0  0  0  0  0  0  0  0  0  0
   66.5280  153.6790  -52.5920 H   0  0  0  0  0  0  0  0  0  0  0  0
   67.5340  152.4560  -51.9590 H   0  0  0  0  0  0  0  0  0  0  0  0
   67.6810  151.4230  -44.6100 H   0  0  0  0  0  0  0  0  0  0  0  0
   68.6230  149.2120  -44.6160 H   0  0  0  0  0  0  0  0  0  0  0  0
   69.1190  148.0890  -46.6710 H   0  0  0  0  0  0  0  0  0  0  0  0
   68.6770  149.1670  -48.8300 H   0  0  0  0  0  0  0  0  0  0  0  0
   63.6110  155.8450  -49.3730 H   0  0  0  0  0  0  0  0  0  0  0  0
   63.0740  156.2410  -47.1630 H   0  0  0  0  0  0  0  0  0  0  0  0
   64.4270  155.2140  -46.6910 H   0  0  0  0  0  0  0  0  0  0  0  0
   61.6900  154.0750  -47.5620 H   0  0  0  0  0  0  0  0  0  0  0  0
   63.8300  153.3190  -45.3330 H   0  0  0  0  0  0  0  0  0  0  0  0
   62.2090  152.4180  -45.6850 H   0  0  0  0  0  0  0  0  0  0  0  0
  1  5  1  0  0  0  0
  1 13  2  0  0  0  0
  2  5  1  0  0  0  0
  2 19  1  0  0  0  0
  2 20  1  0  0  0  0
  3  8  2  0  0  0  0
  3  9  1  0  0  0  0
  4 13  1  0  0  0  0
  4 14  1  0  0  0  0
  4 25  1  0  0  0  0
  5  6  2  0  0  0  0
  6 18  1  0  0  0  0
  7  6  1  0  0  0  0
  7  8  1  0  0  0  0
  7 17  2  0  0  0  0
  8 12  1  0  0  0  0
  9 10  2  0  0  0  0
  9 21  1  0  0  0  0
 10 11  1  0  0  0  0
 10 22  1  0  0  0  0
 11 12  2  0  0  0  0
 11 23  1  0  0  0  0
 12 24  1  0  0  0  0
 13 18  1  0  0  0  0
 14 15  1  0  0  0  0
 14 26  1  0  0  0  0
 14 27  1  0  0  0  0
 15 16  2  0  0  0  0
 15 28  1  0  0  0  0
 16 29  1  0  0  0  0
 16 30  1  0  0  0  0
M  END
>  <lm5_entropy_jk>
21.884956070842478

>  <number_of_rotatable_bonds>
5

>  <IC50_NM>
33000

>  <charge>
0

$$$$
