3S1H
 OpenBabel11252210453D

 43 45  0  0  1  0  0  0  0  0999 V2000
   65.5320  154.2340  -50.5790 N   0  0  0  0  0  0  0  0  0  0  0  0
   67.0550  153.4030  -52.1780 N   0  0  0  0  0  0  0  0  0  0  0  0
   64.1870  154.8600  -48.7760 N   0  0  0  0  0  0  0  0  0  0  0  0
   61.4820  153.1810  -42.9500 N   0  0  0  0  0  0  0  0  0  0  0  0
   69.5180  149.5230  -46.2980 C   0  0  0  0  0  0  0  0  0  0  0  0
   70.5480  150.2620  -47.0750 C   0  0  0  0  0  0  0  0  0  0  0  0
   70.1760  151.0130  -48.2790 C   0  0  0  0  0  0  0  0  0  0  0  0
   67.7490  150.2820  -47.9360 C   0  0  0  0  0  0  0  0  0  0  0  0
   68.1000  149.5410  -46.7510 C   0  0  0  0  0  0  0  0  0  0  0  0
   69.0070  148.1120  -44.3660 C   0  0  0  0  0  0  0  0  0  0  0  0
   68.7580  151.0350  -48.7230 C   0  0  0  0  0  0  0  0  0  0  0  0
   68.2970  151.7850  -49.9410 C   0  0  0  0  0  0  0  0  0  0  0  0
   67.1190  152.7390  -49.8590 C   0  0  0  0  0  0  0  0  0  0  0  0
   66.5870  153.4590  -50.9120 C   0  0  0  0  0  0  0  0  0  0  0  0
   65.2400  154.1310  -49.2840 C   0  0  0  0  0  0  0  0  0  0  0  0
   63.4280  154.6110  -47.6590 C   0  0  0  0  0  0  0  0  0  0  0  0
   63.6230  153.4240  -46.7340 C   0  0  0  0  0  0  0  0  0  0  0  0
   62.7910  153.2280  -45.6090 C   0  0  0  0  0  0  0  0  0  0  0  0
   61.7210  154.1980  -45.3380 C   0  0  0  0  0  0  0  0  0  0  0  0
   61.5220  155.3580  -46.2210 C   0  0  0  0  0  0  0  0  0  0  0  0
   62.3550  155.5660  -47.3570 C   0  0  0  0  0  0  0  0  0  0  0  0
   59.5390  153.1080  -44.6280 O   0  0  0  0  0  0  0  0  0  0  0  0
   60.2350  155.4090  -43.5300 O   0  0  0  0  0  0  0  0  0  0  0  0
   68.9060  151.6220  -51.1350 O   0  0  0  0  0  0  0  0  0  0  0  0
   69.8600  148.8140  -45.1470 O   0  0  0  0  0  0  0  0  0  0  0  0
   66.2750  153.0500  -48.4020 S   0  0  0  0  0  0  0  0  0  0  0  0
   60.7480  153.9840  -44.0820 S   0  0  0  0  0  0  0  0  0  0  0  0
   71.5320  150.2470  -46.7650 H   0  0  0  0  0  0  0  0  0  0  0  0
   66.6310  153.9420  -52.8840 H   0  0  0  0  0  0  0  0  0  0  0  0
   67.8210  152.8230  -52.3950 H   0  0  0  0  0  0  0  0  0  0  0  0
   70.8950  151.5230  -48.8150 H   0  0  0  0  0  0  0  0  0  0  0  0
   63.9460  155.6690  -49.2830 H   0  0  0  0  0  0  0  0  0  0  0  0
   66.7650  150.2900  -48.2480 H   0  0  0  0  0  0  0  0  0  0  0  0
   61.7980  152.2840  -43.3190 H   0  0  0  0  0  0  0  0  0  0  0  0
   60.8390  153.0220  -42.1740 H   0  0  0  0  0  0  0  0  0  0  0  0
   67.3770  149.0290  -46.2220 H   0  0  0  0  0  0  0  0  0  0  0  0
   69.5470  147.6720  -43.5540 H   0  0  0  0  0  0  0  0  0  0  0  0
   68.5450  147.3410  -44.9460 H   0  0  0  0  0  0  0  0  0  0  0  0
   68.2540  148.7680  -43.9810 H   0  0  0  0  0  0  0  0  0  0  0  0
   64.3770  152.7470  -46.9300 H   0  0  0  0  0  0  0  0  0  0  0  0
   62.9320  152.4160  -44.9870 H   0  0  0  0  0  0  0  0  0  0  0  0
   60.7680  156.0310  -46.0140 H   0  0  0  0  0  0  0  0  0  0  0  0
   62.2050  156.3850  -47.9660 H   0  0  0  0  0  0  0  0  0  0  0  0
  1 14  1  0  0  0  0
  1 15  2  0  0  0  0
  2 14  1  0  0  0  0
  2 29  1  0  0  0  0
  2 30  1  0  0  0  0
  3 15  1  0  0  0  0
  3 16  1  0  0  0  0
  3 32  1  0  0  0  0
  4 27  1  0  0  0  0
  4 34  1  0  0  0  0
  4 35  1  0  0  0  0
  5  6  2  0  0  0  0
  5  9  1  0  0  0  0
  5 25  1  0  0  0  0
  6  7  1  0  0  0  0
  6 28  1  0  0  0  0
  7 11  2  0  0  0  0
  7 31  1  0  0  0  0
  8  9  2  0  0  0  0
  8 11  1  0  0  0  0
  8 33  1  0  0  0  0
  9 36  1  0  0  0  0
 10 25  1  0  0  0  0
 10 37  1  0  0  0  0
 10 38  1  0  0  0  0
 10 39  1  0  0  0  0
 12 11  1  0  0  0  0
 12 13  1  0  0  0  0
 12 24  2  0  0  0  0
 13 14  2  0  0  0  0
 13 26  1  0  0  0  0
 15 26  1  0  0  0  0
 16 17  2  0  0  0  0
 16 21  1  0  0  0  0
 17 18  1  0  0  0  0
 17 40  1  0  0  0  0
 18 19  2  0  0  0  0
 18 41  1  0  0  0  0
 19 20  1  0  0  0  0
 19 27  1  0  0  0  0
 20 21  2  0  0  0  0
 20 42  1  0  0  0  0
 21 43  1  0  0  0  0
 22 27  2  0  0  0  0
 23 27  2  0  0  0  0
M  END
>  <lm5_entropy_jk>
33.50945403317048

>  <number_of_rotatable_bonds>
6

>  <IC50_NM>
17000

>  <charge>
0

$$$$
