3SQQ
 OpenBabel11252210453D

 42 44  0  0  0  0  0  0  0  0999 V2000
   65.6730  154.3800  -50.3480 N   0  0  0  0  0  0  0  0  0  0  0  0
   64.3730  154.9570  -48.4780 N   0  0  0  0  0  0  0  0  0  0  0  0
   67.2640  153.4560  -52.0620 N   0  0  0  0  0  0  0  0  0  0  0  0
   61.4800  153.1700  -42.7320 N   0  0  0  0  0  0  0  0  0  0  0  0
   67.2300  152.7380  -49.6630 C   0  0  0  0  0  0  0  0  0  0  0  0
   66.7660  153.5160  -50.7610 C   0  0  0  0  0  0  0  0  0  0  0  0
   65.4080  154.1980  -49.0100 C   0  0  0  0  0  0  0  0  0  0  0  0
   63.5740  154.6440  -47.3650 C   0  0  0  0  0  0  0  0  0  0  0  0
   68.3420  151.7460  -49.8710 C   0  0  0  0  0  0  0  0  0  0  0  0
   68.7630  150.9080  -48.7060 C   0  0  0  0  0  0  0  0  0  0  0  0
   70.0970  150.9230  -48.2060 C   0  0  0  0  0  0  0  0  0  0  0  0
   70.3850  150.0990  -47.0950 C   0  0  0  0  0  0  0  0  0  0  0  0
   69.3950  149.2920  -46.5020 C   0  0  0  0  0  0  0  0  0  0  0  0
   68.0730  149.2690  -46.9980 C   0  0  0  0  0  0  0  0  0  0  0  0
   67.7520  150.0890  -48.1160 C   0  0  0  0  0  0  0  0  0  0  0  0
   63.7370  153.4550  -46.6180 C   0  0  0  0  0  0  0  0  0  0  0  0
   62.8770  153.2470  -45.5400 C   0  0  0  0  0  0  0  0  0  0  0  0
   61.9040  154.2160  -45.2570 C   0  0  0  0  0  0  0  0  0  0  0  0
   61.7540  155.3950  -45.9990 C   0  0  0  0  0  0  0  0  0  0  0  0
   62.6020  155.6180  -47.0690 C   0  0  0  0  0  0  0  0  0  0  0  0
   71.1980  151.7940  -48.8250 C   0  0  0  0  0  0  0  0  0  0  0  0
   68.8580  151.6230  -50.9970 O   0  0  0  0  0  0  0  0  0  0  0  0
   60.4820  155.1740  -43.1990 O   0  0  0  0  0  0  0  0  0  0  0  0
   59.9680  152.8460  -44.3710 O   0  0  0  0  0  0  0  0  0  0  0  0
   66.4040  153.0800  -48.2900 S   0  0  0  0  0  0  0  0  0  0  0  0
   60.8010  153.9610  -43.9380 S   0  0  0  0  0  0  0  0  0  0  0  0
   64.1776  155.8089  -48.9311 H   0  0  0  0  0  0  0  0  0  0  0  0
   66.8820  154.0329  -52.7624 H   0  0  0  0  0  0  0  0  0  0  0  0
   67.9976  152.8368  -52.2802 H   0  0  0  0  0  0  0  0  0  0  0  0
   61.7865  152.2529  -43.0567 H   0  0  0  0  0  0  0  0  0  0  0  0
   60.8036  153.0549  -41.9772 H   0  0  0  0  0  0  0  0  0  0  0  0
   71.3422  150.0883  -46.7095 H   0  0  0  0  0  0  0  0  0  0  0  0
   69.6404  148.7058  -45.6889 H   0  0  0  0  0  0  0  0  0  0  0  0
   67.3555  148.6708  -46.5594 H   0  0  0  0  0  0  0  0  0  0  0  0
   66.7936  150.0920  -48.4987 H   0  0  0  0  0  0  0  0  0  0  0  0
   64.4658  152.7661  -46.8615 H   0  0  0  0  0  0  0  0  0  0  0  0
   62.9553  152.3960  -44.9615 H   0  0  0  0  0  0  0  0  0  0  0  0
   61.0256  156.0832  -45.7523 H   0  0  0  0  0  0  0  0  0  0  0  0
   62.5239  156.4768  -47.6359 H   0  0  0  0  0  0  0  0  0  0  0  0
   70.7959  152.3443  -49.6499 H   0  0  0  0  0  0  0  0  0  0  0  0
   71.9962  151.1695  -49.1681 H   0  0  0  0  0  0  0  0  0  0  0  0
   71.5697  152.4757  -48.0887 H   0  0  0  0  0  0  0  0  0  0  0  0
  1  7  2  0  0  0  0
  2  8  1  0  0  0  0
  2 27  1  0  0  0  0
  3  6  1  0  0  0  0
  3 28  1  0  0  0  0
  3 29  1  0  0  0  0
  4 30  1  0  0  0  0
  4 31  1  0  0  0  0
  5 25  1  0  0  0  0
  6  1  1  0  0  0  0
  6  5  2  0  0  0  0
  7  2  1  0  0  0  0
  7 25  1  0  0  0  0
  8 20  2  0  0  0  0
  8 16  1  0  0  0  0
  9  5  1  0  0  0  0
  9 10  1  0  0  0  0
 10 11  2  0  0  0  0
 10 15  1  0  0  0  0
 11 12  1  0  0  0  0
 12 13  2  0  0  0  0
 12 32  1  0  0  0  0
 13 33  1  0  0  0  0
 14 13  1  0  0  0  0
 14 34  1  0  0  0  0
 15 14  2  0  0  0  0
 15 35  1  0  0  0  0
 16 17  2  0  0  0  0
 16 36  1  0  0  0  0
 17 18  1  0  0  0  0
 17 37  1  0  0  0  0
 18 26  1  0  0  0  0
 19 18  2  0  0  0  0
 19 38  1  0  0  0  0
 20 19  1  0  0  0  0
 20 39  1  0  0  0  0
 21 11  1  0  0  0  0
 21 40  1  0  0  0  0
 21 41  1  0  0  0  0
 21 42  1  0  0  0  0
 22  9  2  0  0  0  0
 24 26  2  0  0  0  0
 26 23  2  0  0  0  0
 26  4  1  0  0  0  0
M  END
>  <lm5_entropy_jk>
31.418959509749985

>  <number_of_rotatable_bonds>
5

>  <IC50_NM>
4800

>  <charge>
0

$$$$
