4LBR
 OpenBabel11252210453D

 35 36  0  0  0  0  0  0  0  0999 V2000
   14.1260  -11.9230   18.8390 Cl  0  0  0  0  0  0  0  0  0  0  0  0
   17.8930   -5.9630   13.3360 C   0  0  0  0  0  0  0  0  0  0  0  0
   18.5320   -5.0060   12.5240 C   0  0  0  0  0  0  0  0  0  0  0  0
   16.5430   -6.1940   13.0190 C   0  0  0  0  0  0  0  0  0  0  0  0
   17.9200   -4.3230   11.4710 C   0  0  0  0  0  0  0  0  0  0  0  0
   15.8720   -5.5440   11.9700 C   0  0  0  0  0  0  0  0  0  0  0  0
   16.5800   -4.6090   11.2280 C   0  0  0  0  0  0  0  0  0  0  0  0
   18.6810   -6.6360   14.4420 C   0  0  0  0  0  0  0  0  0  0  0  0
   17.8840   -7.4560   15.3640 N   0  0  0  0  0  0  0  0  0  0  0  0
   17.7520   -8.8320   15.1880 C   0  0  0  0  0  0  0  0  0  0  0  0
   16.9250   -9.5800   16.1760 C   0  0  0  0  0  0  0  0  0  0  0  0
   16.4480   -9.0240   17.3980 C   0  0  0  0  0  0  0  0  0  0  0  0
   16.5940  -10.9090   15.8750 C   0  0  0  0  0  0  0  0  0  0  0  0
   15.5390   -9.7370   18.2050 C   0  0  0  0  0  0  0  0  0  0  0  0
   15.7540  -11.6570   16.7040 C   0  0  0  0  0  0  0  0  0  0  0  0
   15.2280  -11.0350   17.8350 C   0  0  0  0  0  0  0  0  0  0  0  0
   18.2890   -9.4020   14.2400 O   0  0  0  0  0  0  0  0  0  0  0  0
   16.9870   -7.8300   17.7020 O   0  0  0  0  0  0  0  0  0  0  0  0
   16.6100   -7.0650   18.8870 C   0  0  0  0  0  0  0  0  0  0  0  0
   15.5360   -5.9860   18.4880 C   0  0  0  0  0  0  0  0  0  0  0  0
   14.9990   -5.4340   19.4690 O   0  0  0  0  0  0  0  0  0  0  0  0
   15.2990   -5.7990   17.2880 O   0  5  0  0  0  0  0  0  0  0  0  0
   15.8270   -7.0510   13.7330 F   0  0  0  0  0  0  0  0  0  0  0  0
   19.8080   -4.7160   12.7770 F   0  0  0  0  0  0  0  0  0  0  0  0
   15.5390   -3.4890    9.7610 I   0  0  0  0  0  0  0  0  0  0  0  0
   14.8120   -5.7370   11.7590 H   0  0  0  0  0  0  0  0  0  0  0  0
   17.5990   -6.6200   19.1370 H   0  0  0  0  0  0  0  0  0  0  0  0
   18.4510   -3.5620   10.8930 H   0  0  0  0  0  0  0  0  0  0  0  0
   19.1850   -5.8360   15.0590 H   0  0  0  0  0  0  0  0  0  0  0  0
   17.4030   -6.9400   16.1160 H   0  0  0  0  0  0  0  0  0  0  0  0
   16.9860  -11.3840   14.9660 H   0  0  0  0  0  0  0  0  0  0  0  0
   15.1200   -9.3110   19.1130 H   0  0  0  0  0  0  0  0  0  0  0  0
   15.5140  -12.6940   16.4620 H   0  0  0  0  0  0  0  0  0  0  0  0
   16.2670   -7.7310   19.6930 H   0  0  0  0  0  0  0  0  0  0  0  0
   19.4800   -7.2830   13.9750 H   0  0  0  0  0  0  0  0  0  0  0  0
  1 16  1  0  0  0  0
  2  3  2  0  0  0  0
  2  4  1  0  0  0  0
  2  8  1  0  0  0  0
  3  5  1  0  0  0  0
  3 24  1  0  0  0  0
  4  6  2  0  0  0  0
  4 23  1  0  0  0  0
  5  7  2  0  0  0  0
  5 28  1  0  0  0  0
  6  7  1  0  0  0  0
  6 26  1  0  0  0  0
  7 25  1  0  0  0  0
  8  9  1  0  0  0  0
  8 29  1  0  0  0  0
  8 35  1  0  0  0  0
  9 10  1  0  0  0  0
  9 30  1  0  0  0  0
 10 11  1  0  0  0  0
 10 17  2  0  0  0  0
 11 12  2  0  0  0  0
 11 13  1  0  0  0  0
 12 14  1  0  0  0  0
 12 18  1  0  0  0  0
 13 15  2  0  0  0  0
 13 31  1  0  0  0  0
 14 16  2  0  0  0  0
 14 32  1  0  0  0  0
 15 16  1  0  0  0  0
 15 33  1  0  0  0  0
 18 19  1  0  0  0  0
 19 20  1  0  0  0  0
 19 27  1  0  0  0  0
 19 34  1  0  0  0  0
 20 21  2  0  0  0  0
 20 22  1  0  0  0  0
M  CHG  1  22  -1
M  END
>  <deltaG_kcalmol>
-9.56

>  <charge>
-1

>  <lm5_entropy_jk>
25.63780735381752

>  <number_of_rotatable_bonds>
7

$$$$
