JAK1_3.pdb
 OpenBabel11252210453D

 57 61  0  0  1  0  0  0  0  0999 V2000
  -15.8170   37.8480   -3.2240 C   0  0  0  0  0  0  0  0  0  0  0  0
  -15.3100   36.4530   -3.5730 C   0  0  0  0  0  0  0  0  0  0  0  0
  -16.4610   35.4840   -3.8060 C   0  0  0  0  0  0  0  0  0  0  0  0
  -14.4180   35.9590   -2.3950 N   0  3  2  0  0  0  0  0  0  0  0  0
  -13.0810   36.7100   -2.3010 C   0  0  0  0  0  0  0  0  0  0  0  0
  -12.0420   35.6940   -1.8120 C   0  0  0  0  0  0  0  0  0  0  0  0
  -12.6750   34.2950   -1.8930 C   0  0  0  0  0  0  0  0  0  0  0  0
  -14.0900   34.4620   -2.4700 C   0  0  1  0  0  0  0  0  0  0  0  0
  -15.1310   33.6640   -1.6570 C   0  0  0  0  0  0  0  0  0  0  0  0
  -15.7170   34.2080   -0.7300 O   0  0  0  0  0  0  0  0  0  0  0  0
  -15.4280   32.3960   -2.1120 N   0  0  0  0  0  0  0  0  0  0  0  0
  -16.4340   31.5980   -1.3370 C   0  0  0  0  0  0  0  0  0  0  0  0
  -15.7150   30.6370   -0.3800 C   0  0  0  0  0  0  0  0  0  0  0  0
  -14.7450   29.7390   -1.1830 C   0  0  1  0  0  0  0  0  0  0  0  0
  -13.7180   30.5950   -1.9510 C   0  0  0  0  0  0  0  0  0  0  0  0
  -14.4870   31.5420   -2.8950 C   0  0  0  0  0  0  0  0  0  0  0  0
  -14.1080   28.7620   -0.2780 N   0  0  0  0  0  0  0  0  0  0  0  0
  -12.7910   28.7550    0.2810 C   0  0  0  0  0  0  0  0  0  0  0  0
  -12.5370   27.6050    0.9240 N   0  0  0  0  0  0  0  0  0  0  0  0
  -13.6710   26.7900    0.7490 C   0  0  0  0  0  0  0  0  0  0  0  0
  -14.6640   27.5100    0.0050 C   0  0  0  0  0  0  0  0  0  0  0  0
  -15.8680   26.8890   -0.3690 C   0  0  0  0  0  0  0  0  0  0  0  0
  -17.0490   27.2200   -1.0990 C   0  0  0  0  0  0  0  0  0  0  0  0
  -17.7980   26.0570   -1.2160 C   0  0  0  0  0  0  0  0  0  0  0  0
  -17.1270   24.9970   -0.5790 N   0  0  0  0  0  0  0  0  0  0  0  0
  -15.9490   25.4940   -0.0190 C   0  0  0  0  0  0  0  0  0  0  0  0
  -15.0090   24.7730    0.7090 N   0  0  0  0  0  0  0  0  0  0  0  0
  -13.9040   25.4150    1.0870 C   0  0  0  0  0  0  0  0  0  0  0  0
  -14.1840   34.1260   -3.5410 H   0  0  0  0  0  0  0  0  0  0  0  0
  -17.5090   24.0510   -0.4970 H   0  0  0  0  0  0  0  0  0  0  0  0
  -14.6680   36.4990   -4.4970 H   0  0  0  0  0  0  0  0  0  0  0  0
  -14.9450   36.1500   -1.4800 H   0  0  0  0  0  0  0  0  0  0  0  0
  -12.8010   37.1740   -3.2850 H   0  0  0  0  0  0  0  0  0  0  0  0
  -13.1930   37.5570   -1.5580 H   0  0  0  0  0  0  0  0  0  0  0  0
  -11.7570   35.9360   -0.7500 H   0  0  0  0  0  0  0  0  0  0  0  0
  -11.0930   35.7730   -2.4020 H   0  0  0  0  0  0  0  0  0  0  0  0
  -12.0470   33.5950   -2.5040 H   0  0  0  0  0  0  0  0  0  0  0  0
  -12.7250   33.8560   -0.8620 H   0  0  0  0  0  0  0  0  0  0  0  0
  -17.0880   32.3250   -0.7900 H   0  0  0  0  0  0  0  0  0  0  0  0
  -17.0590   31.0460   -2.0950 H   0  0  0  0  0  0  0  0  0  0  0  0
  -15.1530   31.2190    0.3840 H   0  0  0  0  0  0  0  0  0  0  0  0
  -16.4720   29.9850    0.1210 H   0  0  0  0  0  0  0  0  0  0  0  0
  -15.3450   29.1590   -1.9500 H   0  0  0  0  0  0  0  0  0  0  0  0
  -13.0950   31.2080   -1.2600 H   0  0  0  0  0  0  0  0  0  0  0  0
  -13.0400   29.9520   -2.5700 H   0  0  0  0  0  0  0  0  0  0  0  0
  -15.1140   30.9500   -3.6210 H   0  0  0  0  0  0  0  0  0  0  0  0
  -13.7710   32.1560   -3.4860 H   0  0  0  0  0  0  0  0  0  0  0  0
  -12.1320   29.6000    0.1360 H   0  0  0  0  0  0  0  0  0  0  0  0
  -17.3200   28.1730   -1.5150 H   0  0  0  0  0  0  0  0  0  0  0  0
  -18.7410   25.9160   -1.7240 H   0  0  0  0  0  0  0  0  0  0  0  0
  -13.1510   24.8430    1.6550 H   0  0  0  0  0  0  0  0  0  0  0  0
  -16.1370   34.5430   -4.3080 H   0  0  0  0  0  0  0  0  0  0  0  0
  -17.0110   35.2330   -2.8690 H   0  0  0  0  0  0  0  0  0  0  0  0
  -17.2010   35.9700   -4.5020 H   0  0  0  0  0  0  0  0  0  0  0  0
  -14.9970   38.5360   -2.9100 H   0  0  0  0  0  0  0  0  0  0  0  0
  -16.2930   38.2980   -4.1380 H   0  0  0  0  0  0  0  0  0  0  0  0
  -16.5950   37.8130   -2.4270 H   0  0  0  0  0  0  0  0  0  0  0  0
  1  2  1  0  0  0  0
  2  3  1  0  0  0  0
  2  4  1  0  0  0  0
  4  8  1  0  0  0  0
  4 32  1  1  0  0  0
  5  6  1  0  0  0  0
  5  4  1  0  0  0  0
  6  7  1  0  0  0  0
  7  8  1  0  0  0  0
  8 29  1  6  0  0  0
  9  8  1  0  0  0  0
  9 11  1  0  0  0  0
  9 10  2  0  0  0  0
 12 13  1  0  0  0  0
 12 11  1  0  0  0  0
 13 14  1  0  0  0  0
 14 15  1  0  0  0  0
 14 17  1  0  0  0  0
 14 43  1  6  0  0  0
 15 16  1  0  0  0  0
 16 11  1  0  0  0  0
 18 17  1  0  0  0  0
 18 19  2  0  0  0  0
 20 21  2  0  0  0  0
 20 28  1  0  0  0  0
 20 19  1  0  0  0  0
 21 22  1  0  0  0  0
 21 17  1  0  0  0  0
 22 23  1  0  0  0  0
 22 26  2  0  0  0  0
 23 24  2  0  0  0  0
 24 25  1  0  0  0  0
 26 25  1  0  0  0  0
 26 27  1  0  0  0  0
 28 27  2  0  0  0  0
 30 25  1  0  0  0  0
 31  2  1  0  0  0  0
 33  5  1  0  0  0  0
 34  5  1  0  0  0  0
 35  6  1  0  0  0  0
 36  6  1  0  0  0  0
 37  7  1  0  0  0  0
 38  7  1  0  0  0  0
 39 12  1  0  0  0  0
 40 12  1  0  0  0  0
 41 13  1  0  0  0  0
 42 13  1  0  0  0  0
 44 15  1  0  0  0  0
 45 15  1  0  0  0  0
 46 16  1  0  0  0  0
 47 16  1  0  0  0  0
 48 18  1  0  0  0  0
 49 23  1  0  0  0  0
 50 24  1  0  0  0  0
 51 28  1  0  0  0  0
 52  3  1  0  0  0  0
 53  3  1  0  0  0  0
 54  3  1  0  0  0  0
 55  1  1  0  0  0  0
 56  1  1  0  0  0  0
 57  1  1  0  0  0  0
M  CHG  1   4   1
M  END
>  <charge>
1

>  <pKi>
7.66

>  <number_of_rotatable_bonds>
3

>  <lm5_entropy_jk>
35.45414597483307

$$$$
