1HSG
 OpenBabel11252210453D

 93 97  0  0  1  0  0  0  0  0999 V2000
    6.0850    0.8130   11.3450 C   0  0  0  0  0  0  0  0  0  0  0  0
    7.3920    1.5900   11.5230 N   0  3  1  0  0  0  0  0  0  0  0  0
    3.8040   -0.9300   12.4660 O   0  0  0  0  0  0  0  0  0  0  0  0
    5.1730    1.0830   12.5570 C   0  0  1  0  0  0  0  0  0  0  0  0
    2.7810    1.1110   12.0730 N   0  0  0  0  0  0  0  0  0  0  0  0
    5.1100   -0.3450   17.1930 O   0  0  0  0  0  0  0  0  0  0  0  0
    3.8580    0.2810   12.3420 C   0  0  0  0  0  0  0  0  0  0  0  0
    5.8450    0.5710   13.7940 N   0  0  0  0  0  0  0  0  0  0  0  0
    5.3410   -4.1410   14.9950 O   0  0  0  0  0  0  0  0  0  0  0  0
    1.3600    0.6160   11.8860 C   0  0  0  0  0  0  0  0  0  0  0  0
    6.0050   -4.0820   17.1900 N   0  0  0  0  0  0  0  0  0  0  0  0
    6.5010   -5.7000   19.6450 O   0  0  0  0  0  0  0  0  0  0  0  0
    0.4680    1.8560   11.7300 C   0  0  0  0  0  0  0  0  0  0  0  0
    7.9420    4.4510    8.0730 N   0  0  0  0  0  0  0  0  0  0  0  0
    1.0010   -0.1630   13.1600 C   0  0  0  0  0  0  0  0  0  0  0  0
    1.3090   -0.2520   10.6210 C   0  0  0  0  0  0  0  0  0  0  0  0
    7.1180    1.3400   14.0080 C   0  0  0  0  0  0  0  0  0  0  0  0
    8.0680    1.1190   12.8170 C   0  0  0  0  0  0  0  0  0  0  0  0
    4.9740    0.6720   15.0120 C   0  0  0  0  0  0  0  0  0  0  0  0
    5.1050   -0.6660   15.7880 C   0  0  2  0  0  0  0  0  0  0  0  0
    3.8960   -1.5840   15.5960 C   0  0  0  0  0  0  0  0  0  0  0  0
    3.9840   -2.8140   16.5140 C   0  0  1  0  0  0  0  0  0  0  0  0
    2.6740   -3.6290   16.4480 C   0  0  0  0  0  0  0  0  0  0  0  0
    2.7880   -5.0350   16.9760 C   0  0  0  0  0  0  0  0  0  0  0  0
    3.0880   -5.2560   18.3290 C   0  0  0  0  0  0  0  0  0  0  0  0
    3.1380   -6.5550   18.8390 C   0  0  0  0  0  0  0  0  0  0  0  0
    2.9300   -7.6480   17.9910 C   0  0  0  0  0  0  0  0  0  0  0  0
    2.6580   -7.4340   16.6360 C   0  0  0  0  0  0  0  0  0  0  0  0
    2.5650   -6.1340   16.1300 C   0  0  0  0  0  0  0  0  0  0  0  0
    5.1510   -3.7260   16.1270 C   0  0  0  0  0  0  0  0  0  0  0  0
    6.7900   -5.3230   17.1620 C   0  0  2  0  0  0  0  0  0  0  0  0
    6.4860   -6.3200   18.3500 C   0  0  1  0  0  0  0  0  0  0  0  0
    7.7390   -7.2310   18.3850 C   0  0  0  0  0  0  0  0  0  0  0  0
    8.8340   -6.2960   17.9520 C   0  0  0  0  0  0  0  0  0  0  0  0
   10.1960   -6.4100   18.1670 C   0  0  0  0  0  0  0  0  0  0  0  0
   11.0220   -5.3590   17.7280 C   0  0  0  0  0  0  0  0  0  0  0  0
   10.4910   -4.2420   17.0880 C   0  0  0  0  0  0  0  0  0  0  0  0
    9.1080   -4.1350   16.8450 C   0  0  0  0  0  0  0  0  0  0  0  0
    8.2930   -5.1620   17.2790 C   0  0  0  0  0  0  0  0  0  0  0  0
    8.3110    1.4070   10.3050 C   0  0  0  0  0  0  0  0  0  0  0  0
    7.8780    2.2790    9.1640 C   0  0  0  0  0  0  0  0  0  0  0  0
    8.2010    3.6540    9.1410 C   0  0  0  0  0  0  0  0  0  0  0  0
    7.3310    3.9000    6.9900 C   0  0  0  0  0  0  0  0  0  0  0  0
    6.9440    2.5480    6.9520 C   0  0  0  0  0  0  0  0  0  0  0  0
    7.2180    1.7330    8.0500 C   0  0  0  0  0  0  0  0  0  0  0  0
    6.3280   -0.2840   11.3030 H   0  0  0  0  0  0  0  0  0  0  0  0
    5.5890    1.1550   10.3950 H   0  0  0  0  0  0  0  0  0  0  0  0
    4.9700    2.1880   12.6270 H   0  0  0  0  0  0  0  0  0  0  0  0
    2.9700    2.0570   11.7260 H   0  0  0  0  0  0  0  0  0  0  0  0
    6.0320    0.0800   17.4060 H   0  0  0  0  0  0  0  0  0  0  0  0
    5.8410   -3.6680   18.1240 H   0  0  0  0  0  0  0  0  0  0  0  0
    6.0020   -4.8410   19.6470 H   0  0  0  0  0  0  0  0  0  0  0  0
   -0.6000    1.5440   11.6640 H   0  0  0  0  0  0  0  0  0  0  0  0
    0.5720    2.5360   12.6020 H   0  0  0  0  0  0  0  0  0  0  0  0
    0.7250    2.4130   10.7990 H   0  0  0  0  0  0  0  0  0  0  0  0
   -0.0830   -0.3950   13.1630 H   0  0  0  0  0  0  0  0  0  0  0  0
    1.5950   -1.1060   13.2140 H   0  0  0  0  0  0  0  0  0  0  0  0
    1.2470    0.4600   14.0460 H   0  0  0  0  0  0  0  0  0  0  0  0
    0.2700   -0.5940   10.4390 H   0  0  0  0  0  0  0  0  0  0  0  0
    1.6520    0.3480    9.7450 H   0  0  0  0  0  0  0  0  0  0  0  0
    1.9870   -1.1270   10.7290 H   0  0  0  0  0  0  0  0  0  0  0  0
    7.6120    0.9140   14.9310 H   0  0  0  0  0  0  0  0  0  0  0  0
    6.9490    2.4390   14.1590 H   0  0  0  0  0  0  0  0  0  0  0  0
    9.0100    1.7030   12.9880 H   0  0  0  0  0  0  0  0  0  0  0  0
    8.3000    0.0200   12.7260 H   0  0  0  0  0  0  0  0  0  0  0  0
    3.9150    0.8740   14.7300 H   0  0  0  0  0  0  0  0  0  0  0  0
    5.3200    1.4970   15.6860 H   0  0  0  0  0  0  0  0  0  0  0  0
    6.0720   -1.1600   15.5350 H   0  0  0  0  0  0  0  0  0  0  0  0
    3.8450   -1.8670   14.5180 H   0  0  0  0  0  0  0  0  0  0  0  0
    2.9630   -1.0250   15.8590 H   0  0  0  0  0  0  0  0  0  0  0  0
    4.1140   -2.4260   17.5650 H   0  0  0  0  0  0  0  0  0  0  0  0
    2.3080   -3.6420   15.3930 H   0  0  0  0  0  0  0  0  0  0  0  0
    1.9230   -3.0800   17.0740 H   0  0  0  0  0  0  0  0  0  0  0  0
    3.2850   -4.4090   18.9830 H   0  0  0  0  0  0  0  0  0  0  0  0
    3.3450   -6.7160   19.9000 H   0  0  0  0  0  0  0  0  0  0  0  0
    2.9860   -8.6640   18.3860 H   0  0  0  0  0  0  0  0  0  0  0  0
    2.5260   -8.2920   15.9750 H   0  0  0  0  0  0  0  0  0  0  0  0
    2.3090   -5.9760   15.0840 H   0  0  0  0  0  0  0  0  0  0  0  0
    6.5650   -5.8640   16.1930 H   0  0  0  0  0  0  0  0  0  0  0  0
    5.5250   -6.8540   18.2290 H   0  0  0  0  0  0  0  0  0  0  0  0
    7.6260   -8.0820   17.6660 H   0  0  0  0  0  0  0  0  0  0  0  0
    7.8940   -7.6530   19.4040 H   0  0  0  0  0  0  0  0  0  0  0  0
   10.6250   -7.2900   18.6480 H   0  0  0  0  0  0  0  0  0  0  0  0
   12.0940   -5.4240   17.8960 H   0  0  0  0  0  0  0  0  0  0  0  0
   11.1420   -3.4250   16.7780 H   0  0  0  0  0  0  0  0  0  0  0  0
    8.7100   -3.2570   16.3350 H   0  0  0  0  0  0  0  0  0  0  0  0
    8.2980    0.3190   10.0110 H   0  0  0  0  0  0  0  0  0  0  0  0
    9.3560    1.6860   10.6110 H   0  0  0  0  0  0  0  0  0  0  0  0
    8.6780    4.1290   10.0120 H   0  0  0  0  0  0  0  0  0  0  0  0
    7.1390    4.5670    6.1290 H   0  0  0  0  0  0  0  0  0  0  0  0
    6.4310    2.1410    6.0740 H   0  0  0  0  0  0  0  0  0  0  0  0
    6.9200    0.6810    8.0460 H   0  0  0  0  0  0  0  0  0  0  0  0
    7.1580    2.6150   11.6160 H   0  0  0  0  0  0  0  0  0  0  0  0
  1  2  1  0  0  0  0
  1  4  1  0  0  0  0
  1 46  1  0  0  0  0
  1 47  1  0  0  0  0
  2 18  1  0  0  0  0
  2 40  1  0  0  0  0
  2 93  1  1  0  0  0
  3  7  2  0  0  0  0
  4  7  1  0  0  0  0
  4  8  1  0  0  0  0
  4 48  1  1  0  0  0
  5  7  1  0  0  0  0
  5 10  1  0  0  0  0
  5 49  1  0  0  0  0
  6 20  1  0  0  0  0
  6 50  1  0  0  0  0
  8 17  1  0  0  0  0
  8 19  1  0  0  0  0
  9 30  2  0  0  0  0
 10 13  1  0  0  0  0
 10 15  1  0  0  0  0
 10 16  1  0  0  0  0
 11 30  1  0  0  0  0
 11 31  1  0  0  0  0
 11 51  1  0  0  0  0
 12 32  1  0  0  0  0
 12 52  1  0  0  0  0
 13 53  1  0  0  0  0
 13 54  1  0  0  0  0
 13 55  1  0  0  0  0
 14 42  2  0  0  0  0
 14 43  1  0  0  0  0
 15 56  1  0  0  0  0
 15 57  1  0  0  0  0
 15 58  1  0  0  0  0
 16 59  1  0  0  0  0
 16 60  1  0  0  0  0
 16 61  1  0  0  0  0
 17 18  1  0  0  0  0
 17 62  1  0  0  0  0
 17 63  1  0  0  0  0
 18 64  1  0  0  0  0
 18 65  1  0  0  0  0
 19 20  1  0  0  0  0
 19 66  1  0  0  0  0
 19 67  1  0  0  0  0
 20 21  1  0  0  0  0
 20 68  1  6  0  0  0
 21 22  1  0  0  0  0
 21 69  1  0  0  0  0
 21 70  1  0  0  0  0
 22 23  1  0  0  0  0
 22 30  1  0  0  0  0
 22 71  1  1  0  0  0
 23 24  1  0  0  0  0
 23 72  1  0  0  0  0
 23 73  1  0  0  0  0
 24 25  2  0  0  0  0
 24 29  1  0  0  0  0
 25 26  1  0  0  0  0
 25 74  1  0  0  0  0
 26 27  2  0  0  0  0
 26 75  1  0  0  0  0
 27 28  1  0  0  0  0
 27 76  1  0  0  0  0
 28 29  2  0  0  0  0
 28 77  1  0  0  0  0
 29 78  1  0  0  0  0
 31 32  1  0  0  0  0
 31 39  1  0  0  0  0
 31 79  1  6  0  0  0
 32 33  1  0  0  0  0
 32 80  1  6  0  0  0
 33 34  1  0  0  0  0
 33 81  1  0  0  0  0
 33 82  1  0  0  0  0
 34 35  2  0  0  0  0
 34 39  1  0  0  0  0
 35 36  1  0  0  0  0
 35 83  1  0  0  0  0
 36 37  2  0  0  0  0
 36 84  1  0  0  0  0
 37 38  1  0  0  0  0
 37 85  1  0  0  0  0
 38 39  2  0  0  0  0
 38 86  1  0  0  0  0
 40 41  1  0  0  0  0
 40 87  1  0  0  0  0
 40 88  1  0  0  0  0
 41 42  1  0  0  0  0
 41 45  2  0  0  0  0
 42 89  1  0  0  0  0
 43 44  2  0  0  0  0
 43 90  1  0  0  0  0
 44 45  1  0  0  0  0
 44 91  1  0  0  0  0
 45 92  1  0  0  0  0
M  CHG  1   2   1
M  END
>  <charge>
1

>  <KI_NM>
0.12

>  <number_of_rotatable_bonds>
14

>  <lm5_entropy_jk>
41.86641068412992

>  <ligand_crystal_conformation>
B

$$$$
