3RK5
 OpenBabel11252210453D

 35 37  0  0  1  0  0  0  0  0999 V2000
   64.2750  154.6150  -48.5960 N   0  0  0  0  0  0  0  0  0  0  0  0
   65.7500  154.2780  -50.3480 N   0  0  0  0  0  0  0  0  0  0  0  0
   67.2830  153.5490  -51.9290 N   0  0  0  0  0  0  0  0  0  0  0  0
   70.5880  149.6040  -47.6800 N   0  0  0  0  0  0  0  0  0  0  0  0
   63.5930  154.6300  -47.3870 C   0  0  0  0  0  0  0  0  0  0  0  0
   65.3990  154.0260  -49.0980 C   0  0  0  0  0  0  0  0  0  0  0  0
   66.8530  153.5290  -50.6650 C   0  0  0  0  0  0  0  0  0  0  0  0
   67.3620  152.7340  -49.6850 C   0  0  0  0  0  0  0  0  0  0  0  0
   68.5080  151.8400  -49.8890 C   0  0  0  0  0  0  0  0  0  0  0  0
   68.8440  150.8340  -48.8280 C   0  0  0  0  0  0  0  0  0  0  0  0
   67.8570  150.0900  -48.1510 C   0  0  0  0  0  0  0  0  0  0  0  0
   68.2690  149.1220  -47.2230 C   0  0  0  0  0  0  0  0  0  0  0  0
   69.6400  148.9080  -47.0160 C   0  0  0  0  0  0  0  0  0  0  0  0
   70.1960  150.5400  -48.5740 C   0  0  0  0  0  0  0  0  0  0  0  0
   62.7580  155.7190  -47.1140 C   0  0  0  0  0  0  0  0  0  0  0  0
   62.0510  155.8160  -45.9040 C   0  0  0  0  0  0  0  0  0  0  0  0
   62.1750  154.8080  -44.9290 C   0  0  0  0  0  0  0  0  0  0  0  0
   62.9820  153.6850  -45.2170 C   0  0  0  0  0  0  0  0  0  0  0  0
   63.6730  153.5950  -46.4440 C   0  0  0  0  0  0  0  0  0  0  0  0
   61.4700  154.9440  -43.6000 C   0  0  0  0  0  0  0  0  0  0  0  0
   69.1760  151.8890  -50.9070 O   0  0  0  0  0  0  0  0  0  0  0  0
   60.5930  155.7820  -43.4920 O   0  0  0  0  0  0  0  0  0  0  0  0
   61.8620  154.2690  -42.6670 O   0  5  0  0  0  0  0  0  0  0  0  0
   66.4590  152.9490  -48.2100 S   0  0  0  0  0  0  0  0  0  0  0  0
   63.8430  155.2140  -49.2930 H   0  0  0  0  0  0  0  0  0  0  0  0
   66.9910  154.2680  -52.5790 H   0  0  0  0  0  0  0  0  0  0  0  0
   68.1420  153.0340  -52.0820 H   0  0  0  0  0  0  0  0  0  0  0  0
   66.7970  150.2410  -48.3530 H   0  0  0  0  0  0  0  0  0  0  0  0
   67.5350  148.5340  -46.6710 H   0  0  0  0  0  0  0  0  0  0  0  0
   69.9850  148.1470  -46.3070 H   0  0  0  0  0  0  0  0  0  0  0  0
   70.9890  151.0660  -49.1170 H   0  0  0  0  0  0  0  0  0  0  0  0
   62.6610  156.5150  -47.8440 H   0  0  0  0  0  0  0  0  0  0  0  0
   61.4200  156.6870  -45.7150 H   0  0  0  0  0  0  0  0  0  0  0  0
   63.0800  152.8850  -44.4820 H   0  0  0  0  0  0  0  0  0  0  0  0
   64.2680  152.7110  -46.6440 H   0  0  0  0  0  0  0  0  0  0  0  0
  1  5  1  0  0  0  0
  1  6  1  0  0  0  0
  1 25  1  0  0  0  0
  2  6  2  0  0  0  0
  2  7  1  0  0  0  0
  3  7  1  0  0  0  0
  3 26  1  0  0  0  0
  3 27  1  0  0  0  0
  4 13  2  0  0  0  0
  4 14  1  0  0  0  0
  5 15  2  0  0  0  0
  5 19  1  0  0  0  0
  6 24  1  0  0  0  0
  7  8  2  0  0  0  0
  8 24  1  0  0  0  0
  9  8  1  0  0  0  0
  9 10  1  0  0  0  0
  9 21  2  0  0  0  0
 10 11  1  0  0  0  0
 10 14  2  0  0  0  0
 11 12  2  0  0  0  0
 11 28  1  0  0  0  0
 12 13  1  0  0  0  0
 12 29  1  0  0  0  0
 13 30  1  0  0  0  0
 14 31  1  0  0  0  0
 15 16  1  0  0  0  0
 15 32  1  0  0  0  0
 16 17  2  0  0  0  0
 16 33  1  0  0  0  0
 17 18  1  0  0  0  0
 17 20  1  0  0  0  0
 18 19  2  0  0  0  0
 18 34  1  0  0  0  0
 19 35  1  0  0  0  0
 20 22  2  0  0  0  0
 20 23  1  0  0  0  0
M  CHG  1  23  -1
M  END
>  <lm5_entropy_jk>
20.582349174783765

>  <number_of_rotatable_bonds>
5

>  <IC50_NM>
4000

>  <charge>
-1

$$$$
