5QD1
 OpenBabel11252210453D

 86 88  0  0  1  0  0  0  0  0999 V2000
   30.3120    5.6970   15.7770 N   0  0  0  0  0  0  0  0  0  0  0  0
   31.4320    5.9530   14.8710 C   0  0  1  0  0  0  0  0  0  0  0  0
   32.3420    7.0110   15.5270 C   0  0  0  0  0  0  0  0  0  0  0  0
   31.5920    8.2810   16.0040 C   0  0  1  0  0  0  0  0  0  0  0  0
   32.5940    9.2200   16.6630 C   0  0  0  0  0  0  0  0  0  0  0  0
   31.9590   10.3580   17.5080 C   0  0  0  0  0  0  0  0  0  0  0  0
   31.0710    9.8120   18.5060 O   0  0  0  0  0  0  0  0  0  0  0  0
   31.6650    8.9790   19.5160 C   0  0  0  0  0  0  0  0  0  0  0  0
   30.7630    9.0470   20.7640 C   0  0  0  0  0  0  0  0  0  0  0  0
   29.3290    8.5210   20.5070 C   0  0  0  0  0  0  0  0  0  0  0  0
   29.2560    6.9930   20.6070 C   0  0  0  0  0  0  0  0  0  0  0  0
   27.8950    6.5730   20.2100 N   0  0  0  0  0  0  0  0  0  0  0  0
   27.4990    6.2340   18.9230 C   0  0  0  0  0  0  0  0  0  0  0  0
   28.3940    6.2080   17.8500 C   0  0  0  0  0  0  0  0  0  0  0  0
   27.9930    5.7820   16.5630 C   0  0  0  0  0  0  0  0  0  0  0  0
   26.6320    5.4590   16.3700 C   0  0  0  0  0  0  0  0  0  0  0  0
   25.7100    5.5510   17.4260 C   0  0  0  0  0  0  0  0  0  0  0  0
   26.1610    5.9210   18.6990 C   0  0  0  0  0  0  0  0  0  0  0  0
   24.2220    5.3290   17.1820 C   0  0  0  0  0  0  0  0  0  0  0  0
   23.6400    4.5610   18.2630 O   0  0  0  0  0  0  0  0  0  0  0  0
   22.1960    4.6040   18.2950 C   0  0  0  0  0  0  0  0  0  0  0  0
   28.9870    5.7090   15.4110 C   0  0  0  0  0  0  0  0  0  0  0  0
   28.6510    5.6660   14.2340 O   0  0  0  0  0  0  0  0  0  0  0  0
   30.9480    9.0100   14.8270 C   0  0  0  0  0  0  0  0  0  0  0  0
   32.1450    4.6230   14.5360 C   0  0  2  0  0  0  0  0  0  0  0  0
   33.2770    4.8140   13.7030 O   0  0  0  0  0  0  0  0  0  0  0  0
   31.1900    3.7440   13.7280 C   0  0  0  0  0  0  0  0  0  0  0  0
   31.7430    2.3560   13.4160 N   0  3  0  0  0  0  0  0  0  0  0  0
   30.7820    1.7020   12.3980 C   0  0  0  0  0  0  0  0  0  0  0  0
   30.7490    2.3780   11.0370 C   0  0  0  0  0  0  0  0  0  0  0  0
   31.8910    2.9860   10.4940 C   0  0  0  0  0  0  0  0  0  0  0  0
   31.8720    3.5640    9.2160 C   0  0  0  0  0  0  0  0  0  0  0  0
   30.6720    3.5610    8.4880 C   0  0  0  0  0  0  0  0  0  0  0  0
   29.5150    2.9720    9.0250 C   0  0  0  0  0  0  0  0  0  0  0  0
   29.5600    2.3740   10.2950 C   0  0  0  0  0  0  0  0  0  0  0  0
   33.1540    4.1590    8.6230 C   0  0  0  0  0  0  0  0  0  0  0  0
   34.2990    3.1270    8.5650 C   0  0  0  0  0  0  0  0  0  0  0  0
   33.6640    5.3510    9.4450 C   0  0  0  0  0  0  0  0  0  0  0  0
   30.5030    5.7050   16.7740 H   0  0  0  0  0  0  0  0  0  0  0  0
   31.0520    6.3760   13.9310 H   0  0  0  0  0  0  0  0  0  0  0  0
   33.1280    7.3020   14.8160 H   0  0  0  0  0  0  0  0  0  0  0  0
   32.8590    6.5530   16.3780 H   0  0  0  0  0  0  0  0  0  0  0  0
   30.8190    8.0190   16.7460 H   0  0  0  0  0  0  0  0  0  0  0  0
   33.2280    9.6670   15.8900 H   0  0  0  0  0  0  0  0  0  0  0  0
   33.2610    8.6330   17.2890 H   0  0  0  0  0  0  0  0  0  0  0  0
   32.7490   10.9490   17.9840 H   0  0  0  0  0  0  0  0  0  0  0  0
   31.4010   11.0440   16.8560 H   0  0  0  0  0  0  0  0  0  0  0  0
   32.6550    9.3630   19.7850 H   0  0  0  0  0  0  0  0  0  0  0  0
   31.7700    7.9500   19.1450 H   0  0  0  0  0  0  0  0  0  0  0  0
   31.2350    8.5090   21.5960 H   0  0  0  0  0  0  0  0  0  0  0  0
   30.7140   10.1000   21.0690 H   0  0  0  0  0  0  0  0  0  0  0  0
   28.6260    8.9720   21.2230 H   0  0  0  0  0  0  0  0  0  0  0  0
   28.9900    8.8530   19.5130 H   0  0  0  0  0  0  0  0  0  0  0  0
   29.4800    6.6830   21.6390 H   0  0  0  0  0  0  0  0  0  0  0  0
   30.0290    6.5370   19.9760 H   0  0  0  0  0  0  0  0  0  0  0  0
   27.1340    6.8960   20.7980 H   0  0  0  0  0  0  0  0  0  0  0  0
   29.4060    6.5550   18.0070 H   0  0  0  0  0  0  0  0  0  0  0  0
   26.2910    5.1540   15.3860 H   0  0  0  0  0  0  0  0  0  0  0  0
   25.4490    5.9840   19.5160 H   0  0  0  0  0  0  0  0  0  0  0  0
   24.0700    4.8240   16.2180 H   0  0  0  0  0  0  0  0  0  0  0  0
   23.7480    6.3190   17.1070 H   0  0  0  0  0  0  0  0  0  0  0  0
   32.4320    4.1500   15.4900 H   0  0  0  0  0  0  0  0  0  0  0  0
   30.2350    3.6660   14.2660 H   0  0  0  0  0  0  0  0  0  0  0  0
   30.9870    4.2460   12.7750 H   0  0  0  0  0  0  0  0  0  0  0  0
   31.8360    1.8090   14.2970 H   0  0  0  0  0  0  0  0  0  0  0  0
   32.7070    2.4530   13.0210 H   0  0  0  0  0  0  0  0  0  0  0  0
   31.0550    0.6490   12.2530 H   0  0  0  0  0  0  0  0  0  0  0  0
   29.7690    1.7030   12.8200 H   0  0  0  0  0  0  0  0  0  0  0  0
   32.8150    3.0320   11.0510 H   0  0  0  0  0  0  0  0  0  0  0  0
   30.6370    4.0210    7.5020 H   0  0  0  0  0  0  0  0  0  0  0  0
   28.5850    2.9720    8.4530 H   0  0  0  0  0  0  0  0  0  0  0  0
   28.6630    1.9090   10.7000 H   0  0  0  0  0  0  0  0  0  0  0  0
   32.9380    4.5090    7.5990 H   0  0  0  0  0  0  0  0  0  0  0  0
   32.9470    6.1810    9.3920 H   0  0  0  0  0  0  0  0  0  0  0  0
   34.6240    5.7220    9.0680 H   0  0  0  0  0  0  0  0  0  0  0  0
   33.7880    5.0950   10.5030 H   0  0  0  0  0  0  0  0  0  0  0  0
   34.0670    5.0000   14.2860 H   0  0  0  0  0  0  0  0  0  0  0  0
   30.4640    9.9320   15.1650 H   0  0  0  0  0  0  0  0  0  0  0  0
   31.6940    9.2800   14.0720 H   0  0  0  0  0  0  0  0  0  0  0  0
   30.1670    8.4010   14.3660 H   0  0  0  0  0  0  0  0  0  0  0  0
   33.9970    2.2450    7.9850 H   0  0  0  0  0  0  0  0  0  0  0  0
   35.1890    3.5450    8.0750 H   0  0  0  0  0  0  0  0  0  0  0  0
   34.5920    2.7830    9.5640 H   0  0  0  0  0  0  0  0  0  0  0  0
   21.8060    3.9800   19.1110 H   0  0  0  0  0  0  0  0  0  0  0  0
   21.7580    4.2420   17.3540 H   0  0  0  0  0  0  0  0  0  0  0  0
   21.8310    5.6280   18.4660 H   0  0  0  0  0  0  0  0  0  0  0  0
  1  2  1  0  0  0  0
  1 22  1  0  0  0  0
  2  3  1  0  0  0  0
  2 25  1  0  0  0  0
  2 40  1  6  0  0  0
  3  4  1  0  0  0  0
  4  5  1  0  0  0  0
  4 24  1  0  0  0  0
  4 43  1  1  0  0  0
  5  6  1  0  0  0  0
  6  7  1  0  0  0  0
  7  8  1  0  0  0  0
  8  9  1  0  0  0  0
  9 10  1  0  0  0  0
 10 11  1  0  0  0  0
 11 12  1  0  0  0  0
 12 13  1  0  0  0  0
 13 14  2  0  0  0  0
 13 18  1  0  0  0  0
 14 15  1  0  0  0  0
 15 16  2  0  0  0  0
 15 22  1  0  0  0  0
 16 17  1  0  0  0  0
 17 18  2  0  0  0  0
 17 19  1  0  0  0  0
 19 20  1  0  0  0  0
 20 21  1  0  0  0  0
 22 23  2  0  0  0  0
 25 26  1  0  0  0  0
 25 27  1  0  0  0  0
 25 62  1  1  0  0  0
 27 28  1  0  0  0  0
 28 29  1  0  0  0  0
 29 30  1  0  0  0  0
 30 31  2  0  0  0  0
 30 35  1  0  0  0  0
 31 32  1  0  0  0  0
 32 33  2  0  0  0  0
 32 36  1  0  0  0  0
 33 34  1  0  0  0  0
 34 35  2  0  0  0  0
 36 37  1  0  0  0  0
 36 38  1  0  0  0  0
 39  1  1  0  0  0  0
 41  3  1  0  0  0  0
 42  3  1  0  0  0  0
 44  5  1  0  0  0  0
 45  5  1  0  0  0  0
 46  6  1  0  0  0  0
 47  6  1  0  0  0  0
 48  8  1  0  0  0  0
 49  8  1  0  0  0  0
 50  9  1  0  0  0  0
 51  9  1  0  0  0  0
 52 10  1  0  0  0  0
 53 10  1  0  0  0  0
 54 11  1  0  0  0  0
 55 11  1  0  0  0  0
 56 12  1  0  0  0  0
 57 14  1  0  0  0  0
 58 16  1  0  0  0  0
 59 18  1  0  0  0  0
 60 19  1  0  0  0  0
 61 19  1  0  0  0  0
 63 27  1  0  0  0  0
 64 27  1  0  0  0  0
 65 28  1  0  0  0  0
 66 28  1  0  0  0  0
 67 29  1  0  0  0  0
 68 29  1  0  0  0  0
 69 31  1  0  0  0  0
 70 33  1  0  0  0  0
 71 34  1  0  0  0  0
 72 35  1  0  0  0  0
 73 36  1  0  0  0  0
 74 38  1  0  0  0  0
 75 38  1  0  0  0  0
 76 38  1  0  0  0  0
 77 26  1  0  0  0  0
 78 24  1  0  0  0  0
 79 24  1  0  0  0  0
 80 24  1  0  0  0  0
 81 37  1  0  0  0  0
 82 37  1  0  0  0  0
 83 37  1  0  0  0  0
 84 21  1  0  0  0  0
 85 21  1  0  0  0  0
 86 21  1  0  0  0  0
M  CHG  1  28   1
M  END
>  <IC50_NM>
570

>  <number_of_rotatable_bonds>
8

>  <lm5_entropy_jk>
43.09589189476858

>  <charge>
1

>  <old_name>
BACE_10

>  <xray_resolution>
2.4

$$$$
