5QD3
 OpenBabel11252210453D

 88 90  0  0  1  0  0  0  0  0999 V2000
   30.4260    5.5780   16.0090 N   0  0  0  0  0  0  0  0  0  0  0  0
   31.5300    5.8130   15.0680 C   0  0  1  0  0  0  0  0  0  0  0  0
   32.4660    6.8620   15.6790 C   0  0  0  0  0  0  0  0  0  0  0  0
   31.7220    8.1230   16.1710 C   0  0  1  0  0  0  0  0  0  0  0  0
   32.7490    9.0830   16.7290 C   0  0  0  0  0  0  0  0  0  0  0  0
   32.1810   10.2810   17.5250 C   0  0  0  0  0  0  0  0  0  0  0  0
   31.1560    9.9390   18.6310 C   0  0  0  0  0  0  0  0  0  0  0  0
   31.7310    9.0300   19.7430 C   0  0  0  0  0  0  0  0  0  0  0  0
   30.9200    9.1080   21.0610 C   0  0  0  0  0  0  0  0  0  0  0  0
   29.4500    8.6510   20.9070 C   0  0  0  0  0  0  0  0  0  0  0  0
   29.3270    7.1220   20.8750 C   0  0  0  0  0  0  0  0  0  0  0  0
   27.9580    6.7780   20.4350 N   0  0  0  0  0  0  0  0  0  0  0  0
   27.5870    6.3880   19.1560 C   0  0  0  0  0  0  0  0  0  0  0  0
   28.4950    6.3430   18.0930 C   0  0  0  0  0  0  0  0  0  0  0  0
   28.1160    5.8630   16.8200 C   0  0  0  0  0  0  0  0  0  0  0  0
   26.7650    5.5080   16.6230 C   0  0  0  0  0  0  0  0  0  0  0  0
   25.8290    5.6220   17.6630 C   0  0  0  0  0  0  0  0  0  0  0  0
   26.2570    6.0440   18.9280 C   0  0  0  0  0  0  0  0  0  0  0  0
   24.3490    5.3650   17.4070 C   0  0  0  0  0  0  0  0  0  0  0  0
   23.7780    4.5720   18.4750 O   0  0  0  0  0  0  0  0  0  0  0  0
   22.3340    4.5580   18.4640 C   0  0  0  0  0  0  0  0  0  0  0  0
   29.1140    5.7760   15.6730 C   0  0  0  0  0  0  0  0  0  0  0  0
   28.7880    5.8770   14.5010 O   0  0  0  0  0  0  0  0  0  0  0  0
   30.9590    8.8280   15.0510 C   0  0  0  0  0  0  0  0  0  0  0  0
   32.2030    4.4770   14.6890 C   0  0  2  0  0  0  0  0  0  0  0  0
   33.3610    4.6660   13.8890 O   0  0  0  0  0  0  0  0  0  0  0  0
   31.2230    3.6700   13.8240 C   0  0  0  0  0  0  0  0  0  0  0  0
   31.7220    2.2820   13.4120 N   0  3  0  0  0  0  0  0  0  0  0  0
   30.7460    1.7350   12.3410 C   0  0  0  0  0  0  0  0  0  0  0  0
   30.7590    2.4900   11.0210 C   0  0  0  0  0  0  0  0  0  0  0  0
   31.9390    3.0510   10.5150 C   0  0  0  0  0  0  0  0  0  0  0  0
   31.9630    3.7160    9.2810 C   0  0  0  0  0  0  0  0  0  0  0  0
   30.7690    3.8350    8.5520 C   0  0  0  0  0  0  0  0  0  0  0  0
   29.5750    3.2840    9.0480 C   0  0  0  0  0  0  0  0  0  0  0  0
   29.5760    2.6070   10.2800 C   0  0  0  0  0  0  0  0  0  0  0  0
   33.2760    4.3000    8.7470 C   0  0  0  0  0  0  0  0  0  0  0  0
   33.8340    5.3780    9.6850 C   0  0  0  0  0  0  0  0  0  0  0  0
   34.3730    3.2280    8.5890 C   0  0  0  0  0  0  0  0  0  0  0  0
   30.6260    5.5550   17.0070 H   0  0  0  0  0  0  0  0  0  0  0  0
   31.1360    6.2520   14.1410 H   0  0  0  0  0  0  0  0  0  0  0  0
   33.0110    6.4160   16.5200 H   0  0  0  0  0  0  0  0  0  0  0  0
   33.2310    7.1580   14.9470 H   0  0  0  0  0  0  0  0  0  0  0  0
   31.0310    7.8470   16.9780 H   0  0  0  0  0  0  0  0  0  0  0  0
   33.4120    8.5080   17.3680 H   0  0  0  0  0  0  0  0  0  0  0  0
   33.3680    9.4630   15.9080 H   0  0  0  0  0  0  0  0  0  0  0  0
   31.7400   11.0110   16.8330 H   0  0  0  0  0  0  0  0  0  0  0  0
   33.0290   10.7940   17.9820 H   0  0  0  0  0  0  0  0  0  0  0  0
   30.2520    9.4990   18.1910 H   0  0  0  0  0  0  0  0  0  0  0  0
   30.8290   10.8830   19.0740 H   0  0  0  0  0  0  0  0  0  0  0  0
   31.8090    7.9980   19.3760 H   0  0  0  0  0  0  0  0  0  0  0  0
   32.7510    9.3600   19.9660 H   0  0  0  0  0  0  0  0  0  0  0  0
   31.4200    8.5130   21.8380 H   0  0  0  0  0  0  0  0  0  0  0  0
   30.9430   10.1470   21.4230 H   0  0  0  0  0  0  0  0  0  0  0  0
   29.0110    9.0840   19.9980 H   0  0  0  0  0  0  0  0  0  0  0  0
   28.8460    9.0490   21.7360 H   0  0  0  0  0  0  0  0  0  0  0  0
   30.0920    6.7020   20.2120 H   0  0  0  0  0  0  0  0  0  0  0  0
   29.5360    6.7140   21.8760 H   0  0  0  0  0  0  0  0  0  0  0  0
   27.1970    7.1490   20.9920 H   0  0  0  0  0  0  0  0  0  0  0  0
   29.4940    6.7260   18.2400 H   0  0  0  0  0  0  0  0  0  0  0  0
   26.4420    5.1630   15.6460 H   0  0  0  0  0  0  0  0  0  0  0  0
   25.5340    6.1240   19.7340 H   0  0  0  0  0  0  0  0  0  0  0  0
   24.2150    4.8670   16.4380 H   0  0  0  0  0  0  0  0  0  0  0  0
   23.8510    6.3430   17.3400 H   0  0  0  0  0  0  0  0  0  0  0  0
   32.4490    3.9660   15.6300 H   0  0  0  0  0  0  0  0  0  0  0  0
   30.2620    3.5930   14.3510 H   0  0  0  0  0  0  0  0  0  0  0  0
   31.0430    4.2370   12.9010 H   0  0  0  0  0  0  0  0  0  0  0  0
   31.7680    1.6560   14.2420 H   0  0  0  0  0  0  0  0  0  0  0  0
   32.6930    2.3690   13.0300 H   0  0  0  0  0  0  0  0  0  0  0  0
   29.7280    1.7480   12.7490 H   0  0  0  0  0  0  0  0  0  0  0  0
   30.9750    0.6810   12.1310 H   0  0  0  0  0  0  0  0  0  0  0  0
   32.8600    3.0020   11.0720 H   0  0  0  0  0  0  0  0  0  0  0  0
   30.7680    4.3660    7.6020 H   0  0  0  0  0  0  0  0  0  0  0  0
   28.6510    3.3780    8.4760 H   0  0  0  0  0  0  0  0  0  0  0  0
   28.6490    2.1750   10.6550 H   0  0  0  0  0  0  0  0  0  0  0  0
   33.0820    4.7640    7.7640 H   0  0  0  0  0  0  0  0  0  0  0  0
   35.2910    3.6600    8.1690 H   0  0  0  0  0  0  0  0  0  0  0  0
   34.0490    2.4400    7.8960 H   0  0  0  0  0  0  0  0  0  0  0  0
   34.6260    2.7580    9.5460 H   0  0  0  0  0  0  0  0  0  0  0  0
   34.1070    5.0230   14.4450 H   0  0  0  0  0  0  0  0  0  0  0  0
   30.4990    9.7470   15.4310 H   0  0  0  0  0  0  0  0  0  0  0  0
   30.1420    8.2130   14.6680 H   0  0  0  0  0  0  0  0  0  0  0  0
   31.6340    9.1140   14.2390 H   0  0  0  0  0  0  0  0  0  0  0  0
   33.1710    6.2520    9.6820 H   0  0  0  0  0  0  0  0  0  0  0  0
   34.8220    5.7240    9.3650 H   0  0  0  0  0  0  0  0  0  0  0  0
   33.8930    5.0320   10.7200 H   0  0  0  0  0  0  0  0  0  0  0  0
   21.9440    3.9310   19.2770 H   0  0  0  0  0  0  0  0  0  0  0  0
   21.9390    4.1670   17.5160 H   0  0  0  0  0  0  0  0  0  0  0  0
   21.9230    5.5690   18.6110 H   0  0  0  0  0  0  0  0  0  0  0  0
  1  2  1  0  0  0  0
  1 22  1  0  0  0  0
  2  3  1  0  0  0  0
  2 25  1  0  0  0  0
  2 40  1  6  0  0  0
  3  4  1  0  0  0  0
  4  5  1  0  0  0  0
  4 24  1  0  0  0  0
  4 43  1  1  0  0  0
  5  6  1  0  0  0  0
  6  7  1  0  0  0  0
  7  8  1  0  0  0  0
  8  9  1  0  0  0  0
  9 10  1  0  0  0  0
 10 11  1  0  0  0  0
 11 12  1  0  0  0  0
 12 13  1  0  0  0  0
 13 14  2  0  0  0  0
 13 18  1  0  0  0  0
 14 15  1  0  0  0  0
 15 16  2  0  0  0  0
 15 22  1  0  0  0  0
 16 17  1  0  0  0  0
 17 18  2  0  0  0  0
 17 19  1  0  0  0  0
 19 20  1  0  0  0  0
 20 21  1  0  0  0  0
 22 23  2  0  0  0  0
 25 26  1  0  0  0  0
 25 27  1  0  0  0  0
 25 64  1  1  0  0  0
 27 28  1  0  0  0  0
 28 29  1  0  0  0  0
 29 30  1  0  0  0  0
 30 31  2  0  0  0  0
 30 35  1  0  0  0  0
 31 32  1  0  0  0  0
 32 33  2  0  0  0  0
 32 36  1  0  0  0  0
 33 34  1  0  0  0  0
 34 35  2  0  0  0  0
 36 37  1  0  0  0  0
 36 38  1  0  0  0  0
 39  1  1  0  0  0  0
 41  3  1  0  0  0  0
 42  3  1  0  0  0  0
 44  5  1  0  0  0  0
 45  5  1  0  0  0  0
 46  6  1  0  0  0  0
 47  6  1  0  0  0  0
 48  7  1  0  0  0  0
 49  7  1  0  0  0  0
 50  8  1  0  0  0  0
 51  8  1  0  0  0  0
 52  9  1  0  0  0  0
 53  9  1  0  0  0  0
 54 10  1  0  0  0  0
 55 10  1  0  0  0  0
 56 11  1  0  0  0  0
 57 11  1  0  0  0  0
 58 12  1  0  0  0  0
 59 14  1  0  0  0  0
 60 16  1  0  0  0  0
 61 18  1  0  0  0  0
 62 19  1  0  0  0  0
 63 19  1  0  0  0  0
 65 27  1  0  0  0  0
 66 27  1  0  0  0  0
 67 28  1  0  0  0  0
 68 28  1  0  0  0  0
 69 29  1  0  0  0  0
 70 29  1  0  0  0  0
 71 31  1  0  0  0  0
 72 33  1  0  0  0  0
 73 34  1  0  0  0  0
 74 35  1  0  0  0  0
 75 36  1  0  0  0  0
 76 38  1  0  0  0  0
 77 38  1  0  0  0  0
 78 38  1  0  0  0  0
 79 26  1  0  0  0  0
 80 24  1  0  0  0  0
 81 24  1  0  0  0  0
 82 24  1  0  0  0  0
 83 37  1  0  0  0  0
 84 37  1  0  0  0  0
 85 37  1  0  0  0  0
 86 21  1  0  0  0  0
 87 21  1  0  0  0  0
 88 21  1  0  0  0  0
M  CHG  1  28   1
M  END
>  <IC50_NM>
93

>  <number_of_rotatable_bonds>
8

>  <lm5_entropy_jk>
43.09589189476858

>  <charge>
1

>  <old_name>
BACE_9

>  <xray_resolution>
2.46

$$$$
