5QD3
 OpenBabel11252210453D

 88 90  0  0  1  0  0  0  0  0999 V2000
   30.3470    5.5310   15.7070 N   0  0  0  0  0  0  0  0  0  0  0  0
   31.4550    5.7980   14.7900 C   0  0  1  0  0  0  0  0  0  0  0  0
   32.3790    6.8420   15.4410 C   0  0  0  0  0  0  0  0  0  0  0  0
   31.6460    8.0820   16.0020 C   0  0  1  0  0  0  0  0  0  0  0  0
   32.6890    9.0340   16.5710 C   0  0  0  0  0  0  0  0  0  0  0  0
   32.1370   10.2690   17.3350 C   0  0  0  0  0  0  0  0  0  0  0  0
   31.0700    9.9580   18.4130 C   0  0  0  0  0  0  0  0  0  0  0  0
   31.5950    9.0280   19.5310 C   0  0  0  0  0  0  0  0  0  0  0  0
   30.7110    9.0530   20.8000 C   0  0  0  0  0  0  0  0  0  0  0  0
   29.2780    8.5230   20.5670 C   0  0  0  0  0  0  0  0  0  0  0  0
   29.2490    6.9920   20.4990 C   0  0  0  0  0  0  0  0  0  0  0  0
   27.8900    6.5760   20.0900 N   0  0  0  0  0  0  0  0  0  0  0  0
   27.5150    6.1360   18.8280 C   0  0  0  0  0  0  0  0  0  0  0  0
   28.4050    6.1090   17.7490 C   0  0  0  0  0  0  0  0  0  0  0  0
   28.0280    5.5800   16.4940 C   0  0  0  0  0  0  0  0  0  0  0  0
   26.6930    5.1510   16.3310 C   0  0  0  0  0  0  0  0  0  0  0  0
   25.7740    5.2380   17.3890 C   0  0  0  0  0  0  0  0  0  0  0  0
   26.2040    5.7160   18.6340 C   0  0  0  0  0  0  0  0  0  0  0  0
   24.3050    4.8980   17.1750 C   0  0  0  0  0  0  0  0  0  0  0  0
   23.7740    4.1940   18.3250 O   0  0  0  0  0  0  0  0  0  0  0  0
   22.3620    4.4080   18.5320 C   0  0  0  0  0  0  0  0  0  0  0  0
   29.0220    5.5020   15.3440 C   0  0  0  0  0  0  0  0  0  0  0  0
   28.6860    5.4240   14.1690 O   0  0  0  0  0  0  0  0  0  0  0  0
   30.8490    8.8060   14.9190 C   0  0  0  0  0  0  0  0  0  0  0  0
   32.1690    4.4780   14.4310 C   0  0  2  0  0  0  0  0  0  0  0  0
   33.3080    4.6910   13.6150 O   0  0  0  0  0  0  0  0  0  0  0  0
   31.2240    3.6100   13.6020 C   0  0  0  0  0  0  0  0  0  0  0  0
   31.7650    2.2120   13.3150 N   0  3  0  0  0  0  0  0  0  0  0  0
   30.8170    1.5630   12.2820 C   0  0  0  0  0  0  0  0  0  0  0  0
   30.8030    2.2430   10.9230 C   0  0  0  0  0  0  0  0  0  0  0  0
   31.9340    2.9060   10.4230 C   0  0  0  0  0  0  0  0  0  0  0  0
   31.9370    3.4780    9.1430 C   0  0  0  0  0  0  0  0  0  0  0  0
   30.7670    3.4180    8.3700 C   0  0  0  0  0  0  0  0  0  0  0  0
   29.6180    2.7790    8.8660 C   0  0  0  0  0  0  0  0  0  0  0  0
   29.6450    2.1830   10.1380 C   0  0  0  0  0  0  0  0  0  0  0  0
   33.2160    4.1150    8.5880 C   0  0  0  0  0  0  0  0  0  0  0  0
   33.6630    5.3230    9.4220 C   0  0  0  0  0  0  0  0  0  0  0  0
   34.3890    3.1150    8.5670 C   0  0  0  0  0  0  0  0  0  0  0  0
   30.5400    5.5850   16.7030 H   0  0  0  0  0  0  0  0  0  0  0  0
   31.0630    6.2340   13.8610 H   0  0  0  0  0  0  0  0  0  0  0  0
   32.9450    6.3670   16.2520 H   0  0  0  0  0  0  0  0  0  0  0  0
   33.1270    7.1700   14.7070 H   0  0  0  0  0  0  0  0  0  0  0  0
   30.9750    7.7750   16.8150 H   0  0  0  0  0  0  0  0  0  0  0  0
   33.3390    8.4590   17.2290 H   0  0  0  0  0  0  0  0  0  0  0  0
   33.3210    9.3850   15.7480 H   0  0  0  0  0  0  0  0  0  0  0  0
   31.7210   10.9880   16.6160 H   0  0  0  0  0  0  0  0  0  0  0  0
   32.9790   10.7950   17.8010 H   0  0  0  0  0  0  0  0  0  0  0  0
   30.1760    9.5330   17.9400 H   0  0  0  0  0  0  0  0  0  0  0  0
   30.7420   10.9080   18.8510 H   0  0  0  0  0  0  0  0  0  0  0  0
   31.7160    8.0080   19.1420 H   0  0  0  0  0  0  0  0  0  0  0  0
   32.5910    9.3710   19.8220 H   0  0  0  0  0  0  0  0  0  0  0  0
   31.2000    8.4760   21.5960 H   0  0  0  0  0  0  0  0  0  0  0  0
   30.6640   10.0870   21.1690 H   0  0  0  0  0  0  0  0  0  0  0  0
   28.8580    8.9510   19.6460 H   0  0  0  0  0  0  0  0  0  0  0  0
   28.6180    8.8670   21.3760 H   0  0  0  0  0  0  0  0  0  0  0  0
   30.0230    6.6370   19.8080 H   0  0  0  0  0  0  0  0  0  0  0  0
   29.5110    6.5790   21.4840 H   0  0  0  0  0  0  0  0  0  0  0  0
   27.1220    6.9130   20.6580 H   0  0  0  0  0  0  0  0  0  0  0  0
   29.3910    6.5310   17.8750 H   0  0  0  0  0  0  0  0  0  0  0  0
   26.3710    4.7650   15.3690 H   0  0  0  0  0  0  0  0  0  0  0  0
   25.4930    5.7740   19.4520 H   0  0  0  0  0  0  0  0  0  0  0  0
   24.1850    4.2990   16.2630 H   0  0  0  0  0  0  0  0  0  0  0  0
   23.7730    5.8460   17.0140 H   0  0  0  0  0  0  0  0  0  0  0  0
   32.4500    3.9920   15.3790 H   0  0  0  0  0  0  0  0  0  0  0  0
   30.2540    3.5480   14.1130 H   0  0  0  0  0  0  0  0  0  0  0  0
   31.0540    4.1100   12.6420 H   0  0  0  0  0  0  0  0  0  0  0  0
   31.8320    1.6730   14.2040 H   0  0  0  0  0  0  0  0  0  0  0  0
   32.7380    2.2930   12.9410 H   0  0  0  0  0  0  0  0  0  0  0  0
   29.7990    1.5630   12.6900 H   0  0  0  0  0  0  0  0  0  0  0  0
   31.0940    0.5110   12.1360 H   0  0  0  0  0  0  0  0  0  0  0  0
   32.8360    2.9920   11.0130 H   0  0  0  0  0  0  0  0  0  0  0  0
   30.7480    3.8710    7.3800 H   0  0  0  0  0  0  0  0  0  0  0  0
   28.7120    2.7350    8.2600 H   0  0  0  0  0  0  0  0  0  0  0  0
   28.7560    1.6770   10.5120 H   0  0  0  0  0  0  0  0  0  0  0  0
   33.0200    4.4550    7.5570 H   0  0  0  0  0  0  0  0  0  0  0  0
   35.2800    3.5530    8.0980 H   0  0  0  0  0  0  0  0  0  0  0  0
   34.1260    2.2210    7.9870 H   0  0  0  0  0  0  0  0  0  0  0  0
   34.6630    2.7860    9.5760 H   0  0  0  0  0  0  0  0  0  0  0  0
   34.0750    4.9240   14.2110 H   0  0  0  0  0  0  0  0  0  0  0  0
   30.3480    9.6830   15.3430 H   0  0  0  0  0  0  0  0  0  0  0  0
   30.0670    8.1710   14.4970 H   0  0  0  0  0  0  0  0  0  0  0  0
   31.5110    9.1590   14.1230 H   0  0  0  0  0  0  0  0  0  0  0  0
   32.9200    6.1290    9.3510 H   0  0  0  0  0  0  0  0  0  0  0  0
   34.6180    5.7260    9.0690 H   0  0  0  0  0  0  0  0  0  0  0  0
   33.7690    5.0710   10.4820 H   0  0  0  0  0  0  0  0  0  0  0  0
   22.0030    3.8270   19.3910 H   0  0  0  0  0  0  0  0  0  0  0  0
   21.7720    4.1140   17.6520 H   0  0  0  0  0  0  0  0  0  0  0  0
   22.1490    5.4650   18.7450 H   0  0  0  0  0  0  0  0  0  0  0  0
  1  2  1  0  0  0  0
  1 22  1  0  0  0  0
  2  3  1  0  0  0  0
  2 25  1  0  0  0  0
  2 40  1  6  0  0  0
  3  4  1  0  0  0  0
  4  5  1  0  0  0  0
  4 24  1  0  0  0  0
  4 43  1  1  0  0  0
  5  6  1  0  0  0  0
  6  7  1  0  0  0  0
  7  8  1  0  0  0  0
  8  9  1  0  0  0  0
  9 10  1  0  0  0  0
 10 11  1  0  0  0  0
 11 12  1  0  0  0  0
 12 13  1  0  0  0  0
 13 14  2  0  0  0  0
 13 18  1  0  0  0  0
 14 15  1  0  0  0  0
 15 16  2  0  0  0  0
 15 22  1  0  0  0  0
 16 17  1  0  0  0  0
 17 18  2  0  0  0  0
 17 19  1  0  0  0  0
 19 20  1  0  0  0  0
 20 21  1  0  0  0  0
 22 23  2  0  0  0  0
 25 26  1  0  0  0  0
 25 27  1  0  0  0  0
 25 64  1  1  0  0  0
 27 28  1  0  0  0  0
 28 29  1  0  0  0  0
 29 30  1  0  0  0  0
 30 31  2  0  0  0  0
 30 35  1  0  0  0  0
 31 32  1  0  0  0  0
 32 33  2  0  0  0  0
 32 36  1  0  0  0  0
 33 34  1  0  0  0  0
 34 35  2  0  0  0  0
 36 37  1  0  0  0  0
 36 38  1  0  0  0  0
 39  1  1  0  0  0  0
 41  3  1  0  0  0  0
 42  3  1  0  0  0  0
 44  5  1  0  0  0  0
 45  5  1  0  0  0  0
 46  6  1  0  0  0  0
 47  6  1  0  0  0  0
 48  7  1  0  0  0  0
 49  7  1  0  0  0  0
 50  8  1  0  0  0  0
 51  8  1  0  0  0  0
 52  9  1  0  0  0  0
 53  9  1  0  0  0  0
 54 10  1  0  0  0  0
 55 10  1  0  0  0  0
 56 11  1  0  0  0  0
 57 11  1  0  0  0  0
 58 12  1  0  0  0  0
 59 14  1  0  0  0  0
 60 16  1  0  0  0  0
 61 18  1  0  0  0  0
 62 19  1  0  0  0  0
 63 19  1  0  0  0  0
 65 27  1  0  0  0  0
 66 27  1  0  0  0  0
 67 28  1  0  0  0  0
 68 28  1  0  0  0  0
 69 29  1  0  0  0  0
 70 29  1  0  0  0  0
 71 31  1  0  0  0  0
 72 33  1  0  0  0  0
 73 34  1  0  0  0  0
 74 35  1  0  0  0  0
 75 36  1  0  0  0  0
 76 38  1  0  0  0  0
 77 38  1  0  0  0  0
 78 38  1  0  0  0  0
 79 26  1  0  0  0  0
 80 24  1  0  0  0  0
 81 24  1  0  0  0  0
 82 24  1  0  0  0  0
 83 37  1  0  0  0  0
 84 37  1  0  0  0  0
 85 37  1  0  0  0  0
 86 21  1  0  0  0  0
 87 21  1  0  0  0  0
 88 21  1  0  0  0  0
M  CHG  1  28   1
M  END
>  <IC50_NM>
93

>  <number_of_rotatable_bonds>
8

>  <lm5_entropy_jk>
43.09589189476858

>  <charge>
1

>  <old_name>
BACE_9

>  <xray_resolution>
2.46

$$$$
