3f15.pdb
 OpenBabel11252210453D

 40 40  0  0  1  0  0  0  0  0999 V2000
    5.6130   25.3790    4.7730 C   0  0  0  0  0  0  0  0  0  0  0  0
    7.7960   27.0000    2.4870 N   0  0  0  0  0  0  0  0  0  0  0  0
    7.4730   27.5690    4.9210 O   0  0  0  0  0  0  0  0  0  0  0  0
    7.9620   26.4570    4.1050 S   0  0  0  0  0  0  0  0  0  0  0  0
    4.7670   24.3520    5.1710 C   0  0  0  0  0  0  0  0  0  0  0  0
    8.5500   23.9230    1.4590 N   0  0  0  0  0  0  0  0  0  0  0  0
    9.3680   26.1160    4.2880 O   0  0  0  0  0  0  0  0  0  0  0  0
    6.9360   25.1280    4.3630 C   0  0  0  0  0  0  0  0  0  0  0  0
    4.6230   21.9450    5.6660 O   0  0  0  0  0  0  0  0  0  0  0  0
    5.2620   23.0360    5.1650 C   0  0  0  0  0  0  0  0  0  0  0  0
    7.6820   30.2780    4.4120 O   0  0  0  0  0  0  0  0  0  0  0  0
    7.3780   23.7940    4.2720 C   0  0  0  0  0  0  0  0  0  0  0  0
    8.0570   22.7430    0.8620 O   0  0  0  0  0  0  0  0  0  0  0  0
    7.6300   29.5600    2.0750 C   0  0  1  0  0  0  0  0  0  0  0  0
    8.4010   29.6810    0.8710 O   0  0  0  0  0  0  0  0  0  0  0  0
    6.5460   22.7490    4.6490 C   0  0  0  0  0  0  0  0  0  0  0  0
    6.8440   24.8990    0.3060 O   0  0  0  0  0  0  0  0  0  0  0  0
    6.9450   28.1710    2.1750 C   0  0  0  0  0  0  0  0  0  0  0  0
    7.8750   25.0670    0.9330 C   0  0  0  0  0  0  0  0  0  0  0  0
    3.2620   22.0730    6.1640 C   0  0  0  0  0  0  0  0  0  0  0  0
    8.5410   26.3810    1.3840 C   0  0  0  0  0  0  0  0  0  0  0  0
    8.5010   29.9840    3.2810 C   0  0  0  0  0  0  0  0  0  0  0  0
    5.2350   26.4070    4.8100 H   0  0  0  0  0  0  0  0  0  0  0  0
    3.7420   24.5730    5.4640 H   0  0  0  0  0  0  0  0  0  0  0  0
    9.5950   23.8760    1.4980 H   0  0  0  0  0  0  0  0  0  0  0  0
    7.3720   29.3990    4.8010 H   0  0  0  0  0  0  0  0  0  0  0  0
    8.3860   23.5540    3.9070 H   0  0  0  0  0  0  0  0  0  0  0  0
    8.3150   21.9880    1.6040 H   0  0  0  0  0  0  0  0  0  0  0  0
    6.8210   30.3210    1.9010 H   0  0  0  0  0  0  0  0  0  0  0  0
    9.2200   29.1380    0.9210 H   0  0  0  0  0  0  0  0  0  0  0  0
    6.8750   21.7140    4.5320 H   0  0  0  0  0  0  0  0  0  0  0  0
    6.4160   27.9930    1.1980 H   0  0  0  0  0  0  0  0  0  0  0  0
    6.1690   28.2570    2.9850 H   0  0  0  0  0  0  0  0  0  0  0  0
    3.0400   21.0110    6.4280 H   0  0  0  0  0  0  0  0  0  0  0  0
    2.5930   22.4410    5.3570 H   0  0  0  0  0  0  0  0  0  0  0  0
    3.2490   22.7300    7.0580 H   0  0  0  0  0  0  0  0  0  0  0  0
    8.5750   27.0540    0.4770 H   0  0  0  0  0  0  0  0  0  0  0  0
    9.6140   26.1980    1.6920 H   0  0  0  0  0  0  0  0  0  0  0  0
    9.0090   30.9530    3.0500 H   0  0  0  0  0  0  0  0  0  0  0  0
    9.2320   29.1900    3.5460 H   0  0  0  0  0  0  0  0  0  0  0  0
  1  8  2  0  0  0  0
  1  5  1  0  0  0  0
  1 23  1  0  0  0  0
  2 21  1  0  0  0  0
  2 18  1  0  0  0  0
  2  4  1  0  0  0  0
  3  4  2  0  0  0  0
  4  7  2  0  0  0  0
  4  8  1  0  0  0  0
  5 10  2  0  0  0  0
  5 24  1  0  0  0  0
  6 13  1  0  0  0  0
  6 19  1  0  0  0  0
  6 25  1  0  0  0  0
  8 12  1  0  0  0  0
  9 10  1  0  0  0  0
  9 20  1  0  0  0  0
 10 16  1  0  0  0  0
 11 22  1  0  0  0  0
 11 26  1  0  0  0  0
 12 16  2  0  0  0  0
 12 27  1  0  0  0  0
 13 28  1  0  0  0  0
 14 15  1  0  0  0  0
 14 18  1  0  0  0  0
 14 22  1  0  0  0  0
 14 29  1  6  0  0  0
 15 30  1  0  0  0  0
 16 31  1  0  0  0  0
 17 19  2  0  0  0  0
 18 32  1  0  0  0  0
 18 33  1  0  0  0  0
 19 21  1  0  0  0  0
 20 34  1  0  0  0  0
 20 35  1  0  0  0  0
 20 36  1  0  0  0  0
 21 37  1  0  0  0  0
 21 38  1  0  0  0  0
 22 39  1  0  0  0  0
 22 40  1  0  0  0  0
M  END
>  <COMPND>
3f15.pdb

>  <AUTHOR>
GENERATED BY OPEN BABEL 2.3.1

>  <MASTER>
0    0    0    0    0    0    0    0   40    0   40    0

>  <lm5_entropy_jk>
33.444459229930345

>  <number_of_rotatable_bonds>
9

>  <deltaG_kcalmol>
-11.06

>  <charge>
0

$$$$
