4E4L
 OpenBabel11252210453D

 42 45  0  0  0  0  0  0  0  0999 V2000
  -14.9090   29.2730   -2.6100 C   0  0  0  0  0  0  0  0  0  0  0  0
  -14.6150   29.7850   -1.1970 C   0  0  0  0  0  0  0  0  0  0  0  0
  -13.4360   30.7500   -1.3500 C   0  0  0  0  0  0  0  0  0  0  0  0
  -13.7240   31.9790   -2.2250 C   0  0  0  0  0  0  0  0  0  0  0  0
  -14.8060   32.7640   -1.5570 N   0  0  0  0  0  0  0  0  0  0  0  0
  -16.0710   31.9740   -1.3850 C   0  0  0  0  0  0  0  0  0  0  0  0
  -15.7600   30.6340   -0.6410 C   0  0  0  0  0  0  0  0  0  0  0  0
  -14.8260   34.4300   -1.7590 S   0  0  0  0  0  0  0  0  0  0  0  0
  -15.3560   35.0880   -0.6020 O   0  0  0  0  0  0  0  0  0  0  0  0
  -13.5500   34.7860   -2.3480 O   0  0  0  0  0  0  0  0  0  0  0  0
  -15.8350   34.6030   -2.9800 C   0  0  0  0  0  0  0  0  0  0  0  0
  -14.2770   28.6800   -0.2620 N   0  0  0  0  0  0  0  0  0  0  0  0
  -13.0960   28.5680    0.5210 C   0  0  0  0  0  0  0  0  0  0  0  0
  -12.8730   27.3320    1.0020 N   0  0  0  0  0  0  0  0  0  0  0  0
  -13.9660   26.6590    0.6070 C   0  0  0  0  0  0  0  0  0  0  0  0
  -14.8500   27.4300   -0.0860 C   0  0  0  0  0  0  0  0  0  0  0  0
  -16.0670   26.8460   -0.5050 C   0  0  0  0  0  0  0  0  0  0  0  0
  -17.2320   27.3280   -1.2250 C   0  0  0  0  0  0  0  0  0  0  0  0
  -18.0630   26.2370   -1.4250 C   0  0  0  0  0  0  0  0  0  0  0  0
  -17.4540   25.1260   -0.8160 N   0  0  0  0  0  0  0  0  0  0  0  0
  -16.2600   25.5000   -0.2570 C   0  0  0  0  0  0  0  0  0  0  0  0
  -15.3730   24.7190    0.4000 N   0  0  0  0  0  0  0  0  0  0  0  0
  -14.2310   25.3020    0.8430 C   0  0  0  0  0  0  0  0  0  0  0  0
  -13.1720   31.1260   -0.3560 H   0  0  0  0  0  0  0  0  0  0  0  0
  -12.5720   30.1960   -1.7310 H   0  0  0  0  0  0  0  0  0  0  0  0
  -12.7860   32.5540   -2.3330 H   0  0  0  0  0  0  0  0  0  0  0  0
  -14.0100   31.6910   -3.2500 H   0  0  0  0  0  0  0  0  0  0  0  0
  -16.8170   32.5420   -0.7950 H   0  0  0  0  0  0  0  0  0  0  0  0
  -16.5540   31.7690   -2.3570 H   0  0  0  0  0  0  0  0  0  0  0  0
  -16.6510   30.0060   -0.5730 H   0  0  0  0  0  0  0  0  0  0  0  0
  -15.4960   30.8640    0.3990 H   0  0  0  0  0  0  0  0  0  0  0  0
  -12.4210   29.4020    0.6790 H   0  0  0  0  0  0  0  0  0  0  0  0
  -17.4440   28.3160   -1.6170 H   0  0  0  0  0  0  0  0  0  0  0  0
  -19.0110   26.1650   -1.9510 H   0  0  0  0  0  0  0  0  0  0  0  0
  -13.5160   24.6770    1.3800 H   0  0  0  0  0  0  0  0  0  0  0  0
  -17.8290   24.1820   -0.7570 H   0  0  0  0  0  0  0  0  0  0  0  0
  -15.4250   28.3130   -2.5910 H   0  0  0  0  0  0  0  0  0  0  0  0
  -15.5470   29.9570   -3.1720 H   0  0  0  0  0  0  0  0  0  0  0  0
  -13.9900   29.1010   -3.1760 H   0  0  0  0  0  0  0  0  0  0  0  0
  -15.6350   35.6560   -3.1630 H   0  0  0  0  0  0  0  0  0  0  0  0
  -16.7590   34.3670   -2.4620 H   0  0  0  0  0  0  0  0  0  0  0  0
  -15.4050   33.8670   -3.6460 H   0  0  0  0  0  0  0  0  0  0  0  0
  1  2  1  0  0  0  0
  2  3  1  0  0  0  0
  2  7  1  0  0  0  0
  2 12  1  0  0  0  0
  3  4  1  0  0  0  0
  4  5  1  0  0  0  0
  5  8  1  0  0  0  0
  6  7  1  0  0  0  0
  6  5  1  0  0  0  0
  9  8  2  0  0  0  0
 10  8  2  0  0  0  0
 11  8  1  0  0  0  0
 13 12  1  0  0  0  0
 13 14  2  0  0  0  0
 15 16  2  0  0  0  0
 15 23  1  0  0  0  0
 15 14  1  0  0  0  0
 16 17  1  0  0  0  0
 16 12  1  0  0  0  0
 17 18  1  0  0  0  0
 17 21  2  0  0  0  0
 18 19  2  0  0  0  0
 19 20  1  0  0  0  0
 21 20  1  0  0  0  0
 21 22  1  0  0  0  0
 23 22  2  0  0  0  0
 24  3  1  0  0  0  0
 25  3  1  0  0  0  0
 26  4  1  0  0  0  0
 27  4  1  0  0  0  0
 28  6  1  0  0  0  0
 29  6  1  0  0  0  0
 30  7  1  0  0  0  0
 31  7  1  0  0  0  0
 32 13  1  0  0  0  0
 33 18  1  0  0  0  0
 34 19  1  0  0  0  0
 35 23  1  0  0  0  0
 36 20  1  0  0  0  0
 37  1  1  0  0  0  0
 38  1  1  0  0  0  0
 39  1  1  0  0  0  0
 40 11  1  0  0  0  0
 41 11  1  0  0  0  0
 42 11  1  0  0  0  0
M  END
>  <charge>
0

>  <pKi>
8.77

>  <number_of_rotatable_bonds>
2

>  <lm5_entropy_jk>
32.10319483426943

$$$$
