5MNG
 OpenBabel11252210453D

 18 18  0  0  0  0  0  0  0  0999 V2000
   -2.7260   14.3510   14.1180 N   0  3  0  0  0  0  0  0  0  0  0  0
   -1.6660   12.4310   14.9280 N   0  0  0  0  0  0  0  0  0  0  0  0
   -2.1170   13.7010   15.1470 C   0  0  0  0  0  0  0  0  0  0  0  0
   -1.7280   14.4460   16.3840 C   0  0  0  0  0  0  0  0  0  0  0  0
   -1.7260   15.8640   16.4130 C   0  0  0  0  0  0  0  0  0  0  0  0
   -1.3430   16.5590   17.5720 C   0  0  0  0  0  0  0  0  0  0  0  0
   -0.9740   15.8580   18.7280 C   0  0  0  0  0  0  0  0  0  0  0  0
   -0.9970   14.4590   18.7260 C   0  0  0  0  0  0  0  0  0  0  0  0
   -1.3680   13.7550   17.5670 C   0  0  0  0  0  0  0  0  0  0  0  0
   -2.0080   16.4510   15.5410 H   0  0  0  0  0  0  0  0  0  0  0  0
   -1.3400   17.6500   17.5780 H   0  0  0  0  0  0  0  0  0  0  0  0
   -0.6760   16.3950   19.6310 H   0  0  0  0  0  0  0  0  0  0  0  0
   -0.7240   13.9270   19.6380 H   0  0  0  0  0  0  0  0  0  0  0  0
   -1.3780   12.6690   17.6060 H   0  0  0  0  0  0  0  0  0  0  0  0
   -3.1560   13.7440   13.4150 H   0  0  0  0  0  0  0  0  0  0  0  0
   -3.1980   15.2320   14.3020 H   0  0  0  0  0  0  0  0  0  0  0  0
   -1.2140   11.9330   15.6930 H   0  0  0  0  0  0  0  0  0  0  0  0
   -2.1670   11.8640   14.2450 H   0  0  0  0  0  0  0  0  0  0  0  0
  1  3  2  0  0  0  0
  1 15  1  0  0  0  0
  1 16  1  0  0  0  0
  2  3  1  0  0  0  0
  2 17  1  0  0  0  0
  2 18  1  0  0  0  0
  3  4  1  0  0  0  0
  4  5  2  0  0  0  0
  4  9  1  0  0  0  0
  5  6  1  0  0  0  0
  5 10  1  0  0  0  0
  6  7  2  0  0  0  0
  6 11  1  0  0  0  0
  7  8  1  0  0  0  0
  7 12  1  0  0  0  0
  8  9  2  0  0  0  0
  8 13  1  0  0  0  0
  9 14  1  0  0  0  0
M  CHG  1   1   1
M  END
>  <number_of_rotatable_bonds>
1

>  <lm5_entropy_jk>
14.133140156892344

>  <deltaG_kcalmol>
-6.40

>  <charge>
1

$$$$
