3rts_rot.pdb
 OpenBabel11252210453D

 31 31  0  0  0  0  0  0  0  0999 V2000
    2.7310   23.9440    5.2500 C   0  0  0  0  0  0  0  0  0  0  0  0
    8.4970   23.8250    1.4840 N   0  0  0  0  0  0  0  0  0  0  0  0
    7.4520   27.8340    4.5720 O   0  0  0  0  0  0  0  0  0  0  0  0
    7.9130   26.6190    3.9130 S   0  0  0  0  0  0  0  0  0  0  0  0
    2.7470   22.7200    5.9240 C   0  0  0  0  0  0  0  0  0  0  0  0
    7.7120   26.8960    2.2240 N   0  0  0  0  0  0  0  0  0  0  0  0
    9.3000   26.2510    4.2050 O   0  0  0  0  0  0  0  0  0  0  0  0
    3.9040   24.6910    5.1200 C   0  0  0  0  0  0  0  0  0  0  0  0
    6.9430   24.7730    0.1100 O   0  0  0  0  0  0  0  0  0  0  0  0
    3.9430   22.2520    6.4740 C   0  0  0  0  0  0  0  0  0  0  0  0
    8.0460   22.6320    0.8750 O   0  0  0  0  0  0  0  0  0  0  0  0
    5.1200   22.9970    6.3450 C   0  0  0  0  0  0  0  0  0  0  0  0
    5.1110   24.2260    5.6670 C   0  0  0  0  0  0  0  0  0  0  0  0
    6.3680   25.0690    5.5840 C   0  0  0  0  0  0  0  0  0  0  0  0
    6.8470   25.2600    4.1410 C   0  0  0  0  0  0  0  0  0  0  0  0
    8.5970   26.2670    1.2290 C   0  0  0  0  0  0  0  0  0  0  0  0
    7.9300   24.9500    0.8020 C   0  0  0  0  0  0  0  0  0  0  0  0
    1.7970   24.3180    4.8240 H   0  0  0  0  0  0  0  0  0  0  0  0
    9.5300   23.7610    1.6310 H   0  0  0  0  0  0  0  0  0  0  0  0
    1.8290   22.1350    6.0140 H   0  0  0  0  0  0  0  0  0  0  0  0
    7.3800   27.8290    1.9170 H   0  0  0  0  0  0  0  0  0  0  0  0
    3.8650   25.6420    4.5880 H   0  0  0  0  0  0  0  0  0  0  0  0
    3.9490   21.3030    7.0120 H   0  0  0  0  0  0  0  0  0  0  0  0
    8.2900   21.8860    1.6300 H   0  0  0  0  0  0  0  0  0  0  0  0
    6.0420   22.6210    6.7880 H   0  0  0  0  0  0  0  0  0  0  0  0
    6.1300   26.0640    6.0410 H   0  0  0  0  0  0  0  0  0  0  0  0
    7.1820   24.5780    6.1760 H   0  0  0  0  0  0  0  0  0  0  0  0
    7.3550   24.3040    3.8080 H   0  0  0  0  0  0  0  0  0  0  0  0
    5.9400   25.3820    3.4810 H   0  0  0  0  0  0  0  0  0  0  0  0
    8.7180   26.9230    0.3170 H   0  0  0  0  0  0  0  0  0  0  0  0
    9.6370   26.0880    1.6310 H   0  0  0  0  0  0  0  0  0  0  0  0
  1  5  2  0  0  0  0
  1  8  1  0  0  0  0
  1 18  1  0  0  0  0
  2 11  1  0  0  0  0
  2 17  1  0  0  0  0
  2 19  1  0  0  0  0
  3  4  2  0  0  0  0
  4  6  1  0  0  0  0
  4  7  2  0  0  0  0
  4 15  1  0  0  0  0
  5 10  1  0  0  0  0
  5 20  1  0  0  0  0
  6 16  1  0  0  0  0
  6 21  1  0  0  0  0
  8 13  2  0  0  0  0
  8 22  1  0  0  0  0
  9 17  2  0  0  0  0
 10 12  2  0  0  0  0
 10 23  1  0  0  0  0
 11 24  1  0  0  0  0
 12 13  1  0  0  0  0
 12 25  1  0  0  0  0
 13 14  1  0  0  0  0
 14 15  1  0  0  0  0
 14 26  1  0  0  0  0
 14 27  1  0  0  0  0
 15 28  1  0  0  0  0
 15 29  1  0  0  0  0
 16 17  1  0  0  0  0
 16 30  1  0  0  0  0
 16 31  1  0  0  0  0
M  END
>  <lm5_entropy_jk>
23.08244794499805

>  <number_of_rotatable_bonds>
7

>  <deltaG_kcalmol>
-10.43

>  <charge>
0

$$$$
