6T0M
 OpenBabel11252210453D

 56 58  0  0  1  0  0  0  0  0999 V2000
   -1.0040   20.4170   15.7220 N   0  3  0  0  0  0  0  0  0  0  0  0
    0.3620   20.7260   16.3750 C   0  0  1  0  0  0  0  0  0  0  0  0
   -0.4860   18.2320   20.0450 O   0  0  0  0  0  0  0  0  0  0  0  0
    0.8210   19.4910   17.1810 C   0  0  0  0  0  0  0  0  0  0  0  0
    1.3870   19.6790   18.4140 N   0  0  0  0  0  0  0  0  0  0  0  0
    0.6890   18.3540   16.7190 O   0  0  0  0  0  0  0  0  0  0  0  0
    1.8090   18.5130   19.2520 C   0  0  2  0  0  0  0  0  0  0  0  0
    0.6380   16.3340   19.4170 N   0  0  0  0  0  0  0  0  0  0  0  0
    0.5290   17.7110   19.6170 C   0  0  0  0  0  0  0  0  0  0  0  0
   -1.9950   13.3720   15.0850 N   0  0  0  0  0  0  0  0  0  0  0  0
   -0.5020   15.4010   19.4100 C   0  0  0  0  0  0  0  0  0  0  0  0
   -2.6560   15.5980   15.6620 N   0  3  0  0  0  0  0  0  0  0  0  0
   -1.2390   15.4370   18.0820 C   0  0  0  0  0  0  0  0  0  0  0  0
   -3.2090   17.9190   16.0990 N   0  0  0  0  0  0  0  0  0  0  0  0
   -1.2740   14.3510   17.2180 C   0  0  0  0  0  0  0  0  0  0  0  0
   -1.9890   14.4070   15.9890 C   0  0  0  0  0  0  0  0  0  0  0  0
   -2.6110   16.7150   16.5280 C   0  0  0  0  0  0  0  0  0  0  0  0
   -1.9410   16.6150   17.7340 C   0  0  0  0  0  0  0  0  0  0  0  0
    2.5010   19.1100   20.4930 C   0  0  0  0  0  0  0  0  0  0  0  0
    2.4170   20.6460   20.3810 C   0  0  0  0  0  0  0  0  0  0  0  0
    1.6140   20.9840   19.1110 C   0  0  0  0  0  0  0  0  0  0  0  0
    1.3570   21.0670   15.2440 C   0  0  0  0  0  0  0  0  0  0  0  0
    2.6570   21.6470   15.7440 C   0  0  0  0  0  0  0  0  0  0  0  0
    2.6610   22.9120   16.3550 C   0  0  0  0  0  0  0  0  0  0  0  0
    3.8640   23.4830   16.7750 C   0  0  0  0  0  0  0  0  0  0  0  0
    5.0730   22.8060   16.5700 C   0  0  0  0  0  0  0  0  0  0  0  0
    5.0720   21.5570   15.9440 C   0  0  0  0  0  0  0  0  0  0  0  0
    3.8660   20.9710   15.5380 C   0  0  0  0  0  0  0  0  0  0  0  0
   -1.4120   21.3210   15.3250 H   0  0  0  0  0  0  0  0  0  0  0  0
   -1.6990   20.0180   16.4130 H   0  0  0  0  0  0  0  0  0  0  0  0
   -0.8820   19.7100   14.9300 H   0  0  0  0  0  0  0  0  0  0  0  0
    0.1870   21.6300   17.0300 H   0  0  0  0  0  0  0  0  0  0  0  0
    2.5250   17.8880   18.6580 H   0  0  0  0  0  0  0  0  0  0  0  0
    1.5500   15.9290   19.1510 H   0  0  0  0  0  0  0  0  0  0  0  0
   -2.7100   13.3210   14.3150 H   0  0  0  0  0  0  0  0  0  0  0  0
   -1.7010   12.4350   15.4520 H   0  0  0  0  0  0  0  0  0  0  0  0
   -0.1250   14.3600   19.6210 H   0  0  0  0  0  0  0  0  0  0  0  0
   -1.2410   15.6750   20.2240 H   0  0  0  0  0  0  0  0  0  0  0  0
   -3.7540   17.8580   15.2160 H   0  0  0  0  0  0  0  0  0  0  0  0
   -3.7200   18.4370   16.8420 H   0  0  0  0  0  0  0  0  0  0  0  0
    3.5700   18.7830   20.5170 H   0  0  0  0  0  0  0  0  0  0  0  0
    2.0010   18.7710   21.4280 H   0  0  0  0  0  0  0  0  0  0  0  0
    1.9130   21.0880   21.2760 H   0  0  0  0  0  0  0  0  0  0  0  0
    3.4420   21.0900   20.3110 H   0  0  0  0  0  0  0  0  0  0  0  0
    0.6240   21.4510   19.3630 H   0  0  0  0  0  0  0  0  0  0  0  0
    2.1940   21.6720   18.4410 H   0  0  0  0  0  0  0  0  0  0  0  0
    0.8740   21.8400   14.5760 H   0  0  0  0  0  0  0  0  0  0  0  0
    1.5450   20.1560   14.6230 H   0  0  0  0  0  0  0  0  0  0  0  0
    1.7190   23.4520   16.4890 H   0  0  0  0  0  0  0  0  0  0  0  0
    3.8470   24.4640   17.2650 H   0  0  0  0  0  0  0  0  0  0  0  0
    6.0150   23.2620   16.8970 H   0  0  0  0  0  0  0  0  0  0  0  0
    6.0120   21.0260   15.7630 H   0  0  0  0  0  0  0  0  0  0  0  0
    3.8750   19.9960   15.0490 H   0  0  0  0  0  0  0  0  0  0  0  0
   -3.1590   15.7120   14.7510 H   0  0  0  0  0  0  0  0  0  0  0  0
   -0.7670   13.4070   17.4630 H   0  0  0  0  0  0  0  0  0  0  0  0
   -1.9470   17.4890   18.4010 H   0  0  0  0  0  0  0  0  0  0  0  0
  1  2  1  0  0  0  0
  1 29  1  0  0  0  0
  1 30  1  0  0  0  0
  1 31  1  0  0  0  0
  2  4  1  0  0  0  0
  2 22  1  0  0  0  0
  2 32  1  1  0  0  0
  3  9  2  0  0  0  0
  4  5  1  0  0  0  0
  4  6  2  0  0  0  0
  5  7  1  0  0  0  0
  5 21  1  0  0  0  0
  7  9  1  0  0  0  0
  7 19  1  0  0  0  0
  7 33  1  6  0  0  0
  8  9  1  0  0  0  0
  8 11  1  0  0  0  0
  8 34  1  0  0  0  0
 10 16  1  0  0  0  0
 10 35  1  0  0  0  0
 10 36  1  0  0  0  0
 11 13  1  0  0  0  0
 11 37  1  0  0  0  0
 11 38  1  0  0  0  0
 12 16  2  0  0  0  0
 12 17  1  0  0  0  0
 12 54  1  0  0  0  0
 13 15  2  0  0  0  0
 13 18  1  0  0  0  0
 14 17  1  0  0  0  0
 14 39  1  0  0  0  0
 14 40  1  0  0  0  0
 15 16  1  0  0  0  0
 15 55  1  0  0  0  0
 17 18  2  0  0  0  0
 18 56  1  0  0  0  0
 19 20  1  0  0  0  0
 19 41  1  0  0  0  0
 19 42  1  0  0  0  0
 20 21  1  0  0  0  0
 20 43  1  0  0  0  0
 20 44  1  0  0  0  0
 21 45  1  0  0  0  0
 21 46  1  0  0  0  0
 22 23  1  0  0  0  0
 22 47  1  0  0  0  0
 22 48  1  0  0  0  0
 23 24  2  0  0  0  0
 23 28  1  0  0  0  0
 24 25  1  0  0  0  0
 24 49  1  0  0  0  0
 25 26  2  0  0  0  0
 25 50  1  0  0  0  0
 26 27  1  0  0  0  0
 26 51  1  0  0  0  0
 27 28  2  0  0  0  0
 27 52  1  0  0  0  0
 28 53  1  0  0  0  0
M  CHG  2   1   1  12   1
M  END
>  <number_of_rotatable_bonds>
8

>  <lm5_entropy_jk>
21.57145520137845

>  <protonation_change>
deprotonated_in_solution

>  <protonation_site>
54

>  <protonation_pKa>
6.4

>  <protonation_pKa_method>
experiment

>  <experiment_pH>
7.8

>  <protonated_energy_kcalmol>
116.491059

>  <deprotonated_energy_kcalmol>
22.556134

>  <deltaG_kcalmol>
-5.69

>  <charge>
2

$$$$
