1T3R_align_H.pdb
 OpenBabel11252210453D

 75 78  0  0  1  0  0  0  0  0999 V2000
   -0.3340    3.1110   11.1790 N   0  0  0  0  0  0  0  0  0  0  0  0
    0.5180    2.0730   11.5370 C   0  0  0  0  0  0  0  0  0  0  0  0
    1.7460    1.8730   10.8590 C   0  0  0  0  0  0  0  0  0  0  0  0
    2.6390    0.9120   11.3120 C   0  0  0  0  0  0  0  0  0  0  0  0
    2.3380    0.1130   12.4230 C   0  0  0  0  0  0  0  0  0  0  0  0
    1.0970    0.2810   13.0640 C   0  0  0  0  0  0  0  0  0  0  0  0
    0.1950    1.2420   12.6440 C   0  0  0  0  0  0  0  0  0  0  0  0
    3.4510   -0.9930   13.1020 S   0  0  0  0  0  0  0  0  0  0  0  0
    4.3070   -1.6800   12.1400 O   0  0  0  0  0  0  0  0  0  0  0  0
    2.7330   -1.8780   14.0160 O   0  0  0  0  0  0  0  0  0  0  0  0
    4.4650   -0.0040   14.0430 N   0  0  0  0  0  0  0  0  0  0  0  0
    5.4500    0.9140   13.4260 C   0  0  0  0  0  0  0  0  0  0  0  0
    6.9470    0.5260   13.5960 C   0  0  0  0  0  0  0  0  0  0  0  0
    7.2750   -0.8420   12.9840 C   0  0  0  0  0  0  0  0  0  0  0  0
    7.7980    1.6350   12.9500 C   0  0  0  0  0  0  0  0  0  0  0  0
    4.3090    0.0020   15.5040 C   0  0  0  0  0  0  0  0  0  0  0  0
    5.2440   -0.9830   16.2560 C   0  0  1  0  0  0  0  0  0  0  0  0
    5.1800   -0.5650   17.6350 O   0  0  0  0  0  0  0  0  0  0  0  0
    4.8550   -2.4870   16.2130 C   0  0  1  0  0  0  0  0  0  0  0  0
    5.9350   -3.2840   16.8640 N   0  0  0  0  0  0  0  0  0  0  0  0
    6.9980   -3.7820   16.1340 C   0  0  0  0  0  0  0  0  0  0  0  0
    7.0930   -3.8870   14.9270 O   0  0  0  0  0  0  0  0  0  0  0  0
    7.9860   -4.1600   17.0490 O   0  0  0  0  0  0  0  0  0  0  0  0
    8.8530   -5.2950   16.7800 C   0  0  1  0  0  0  0  0  0  0  0  0
   10.0640   -5.0330   17.7050 C   0  0  0  0  0  0  0  0  0  0  0  0
    9.9260   -5.8630   18.8850 O   0  0  0  0  0  0  0  0  0  0  0  0
    8.9070   -6.8570   18.6760 C   0  0  1  0  0  0  0  0  0  0  0  0
    7.9130   -6.6260   19.6780 O   0  0  0  0  0  0  0  0  0  0  0  0
    6.6710   -6.1840   19.0610 C   0  0  0  0  0  0  0  0  0  0  0  0
    6.7500   -6.6390   17.5950 C   0  0  0  0  0  0  0  0  0  0  0  0
    8.2530   -6.6290   17.2840 C   0  0  1  0  0  0  0  0  0  0  0  0
    3.5200   -2.8210   16.9050 C   0  0  0  0  0  0  0  0  0  0  0  0
    3.4680   -5.1930   17.7720 C   0  0  0  0  0  0  0  0  0  0  0  0
    3.2280   -6.5570   17.5810 C   0  0  0  0  0  0  0  0  0  0  0  0
    2.6990   -7.0150   16.3720 C   0  0  0  0  0  0  0  0  0  0  0  0
    2.3940   -6.1010   15.3560 C   0  0  0  0  0  0  0  0  0  0  0  0
    2.6510   -4.7410   15.5320 C   0  0  0  0  0  0  0  0  0  0  0  0
    3.1980   -4.2820   16.7420 C   0  0  0  0  0  0  0  0  0  0  0  0
   -0.2390    3.5420   10.2580 H   0  0  0  0  0  0  0  0  0  0  0  0
   -1.2620    3.1520   11.6340 H   0  0  0  0  0  0  0  0  0  0  0  0
    1.9960    2.4850    9.9890 H   0  0  0  0  0  0  0  0  0  0  0  0
    3.5950    0.7950   10.7900 H   0  0  0  0  0  0  0  0  0  0  0  0
    0.8360   -0.3670   13.9100 H   0  0  0  0  0  0  0  0  0  0  0  0
   -0.7590    1.3810   13.1480 H   0  0  0  0  0  0  0  0  0  0  0  0
    5.3100    1.9350   13.8760 H   0  0  0  0  0  0  0  0  0  0  0  0
    5.2400    0.9890   12.3280 H   0  0  0  0  0  0  0  0  0  0  0  0
    7.1940    0.5110   14.6880 H   0  0  0  0  0  0  0  0  0  0  0  0
    8.3730   -1.0100   13.0250 H   0  0  0  0  0  0  0  0  0  0  0  0
    6.7690   -1.6450   13.5590 H   0  0  0  0  0  0  0  0  0  0  0  0
    6.9440   -0.8750   11.9250 H   0  0  0  0  0  0  0  0  0  0  0  0
    8.8720    1.4550   13.1640 H   0  0  0  0  0  0  0  0  0  0  0  0
    7.6530    1.6560   11.8480 H   0  0  0  0  0  0  0  0  0  0  0  0
    7.5240    2.6310   13.3630 H   0  0  0  0  0  0  0  0  0  0  0  0
    3.2420   -0.2350   15.7590 H   0  0  0  0  0  0  0  0  0  0  0  0
    4.5560    1.0270   15.8920 H   0  0  0  0  0  0  0  0  0  0  0  0
    6.2950   -0.8630   15.9000 H   0  0  0  0  0  0  0  0  0  0  0  0
    6.0430   -0.0420   17.8210 H   0  0  0  0  0  0  0  0  0  0  0  0
    4.7850   -2.7940   15.1310 H   0  0  0  0  0  0  0  0  0  0  0  0
    6.0000   -3.2380   17.8950 H   0  0  0  0  0  0  0  0  0  0  0  0
    9.1020   -5.3120   15.6990 H   0  0  0  0  0  0  0  0  0  0  0  0
   10.0940   -3.9920   18.0790 H   0  0  0  0  0  0  0  0  0  0  0  0
   11.0210   -5.3390   17.2250 H   0  0  0  0  0  0  0  0  0  0  0  0
    9.3650   -7.8370   18.8940 H   0  0  0  0  0  0  0  0  0  0  0  0
    6.6350   -5.0800   19.1500 H   0  0  0  0  0  0  0  0  0  0  0  0
    5.8760   -6.6900   19.6440 H   0  0  0  0  0  0  0  0  0  0  0  0
    6.1590   -5.9830   16.9260 H   0  0  0  0  0  0  0  0  0  0  0  0
    6.3540   -7.6780   17.4820 H   0  0  0  0  0  0  0  0  0  0  0  0
    8.5080   -7.4450   16.5690 H   0  0  0  0  0  0  0  0  0  0  0  0
    2.7100   -2.2090   16.4260 H   0  0  0  0  0  0  0  0  0  0  0  0
    3.5620   -2.5400   17.9840 H   0  0  0  0  0  0  0  0  0  0  0  0
    3.8760   -4.8440   18.7210 H   0  0  0  0  0  0  0  0  0  0  0  0
    3.4610   -7.2650   18.3780 H   0  0  0  0  0  0  0  0  0  0  0  0
    2.5320   -8.0820   16.2300 H   0  0  0  0  0  0  0  0  0  0  0  0
    1.9560   -6.4510   14.4270 H   0  0  0  0  0  0  0  0  0  0  0  0
    2.4260   -4.0160   14.7400 H   0  0  0  0  0  0  0  0  0  0  0  0
  1  2  1  0  0  0  0
  1 39  1  0  0  0  0
  1 40  1  0  0  0  0
  2  3  2  0  0  0  0
  2  7  1  0  0  0  0
  3  4  1  0  0  0  0
  3 41  1  0  0  0  0
  4  5  2  0  0  0  0
  4 42  1  0  0  0  0
  5  6  1  0  0  0  0
  5  8  1  0  0  0  0
  6  7  2  0  0  0  0
  6 43  1  0  0  0  0
  7 44  1  0  0  0  0
  8  9  2  0  0  0  0
  8 10  2  0  0  0  0
  8 11  1  0  0  0  0
 11 12  1  0  0  0  0
 11 16  1  0  0  0  0
 12 13  1  0  0  0  0
 12 45  1  0  0  0  0
 12 46  1  0  0  0  0
 13 14  1  0  0  0  0
 13 15  1  0  0  0  0
 13 47  1  0  0  0  0
 14 48  1  0  0  0  0
 14 49  1  0  0  0  0
 14 50  1  0  0  0  0
 15 51  1  0  0  0  0
 15 52  1  0  0  0  0
 15 53  1  0  0  0  0
 16 17  1  0  0  0  0
 16 54  1  0  0  0  0
 16 55  1  0  0  0  0
 17 18  1  0  0  0  0
 17 19  1  0  0  0  0
 17 56  1  6  0  0  0
 18 57  1  0  0  0  0
 19 20  1  0  0  0  0
 19 32  1  0  0  0  0
 19 58  1  6  0  0  0
 20 21  1  0  0  0  0
 20 59  1  0  0  0  0
 21 22  2  0  0  0  0
 21 23  1  0  0  0  0
 23 24  1  0  0  0  0
 24 25  1  0  0  0  0
 24 31  1  0  0  0  0
 24 60  1  6  0  0  0
 25 26  1  0  0  0  0
 25 61  1  0  0  0  0
 25 62  1  0  0  0  0
 26 27  1  0  0  0  0
 27 28  1  0  0  0  0
 27 31  1  0  0  0  0
 27 63  1  1  0  0  0
 28 29  1  0  0  0  0
 29 30  1  0  0  0  0
 29 64  1  0  0  0  0
 29 65  1  0  0  0  0
 30 31  1  0  0  0  0
 30 66  1  0  0  0  0
 30 67  1  0  0  0  0
 31 68  1  6  0  0  0
 32 38  1  0  0  0  0
 32 69  1  0  0  0  0
 32 70  1  0  0  0  0
 33 34  2  0  0  0  0
 33 38  1  0  0  0  0
 33 71  1  0  0  0  0
 34 35  1  0  0  0  0
 34 72  1  0  0  0  0
 35 36  2  0  0  0  0
 35 73  1  0  0  0  0
 36 37  1  0  0  0  0
 36 74  1  0  0  0  0
 37 38  2  0  0  0  0
 37 75  1  0  0  0  0
M  END
>  <charge>
0

>  <KI_NM>
0.0053

>  <number_of_rotatable_bonds>
13

>  <lm5_entropy_jk>
43.32186921337585

>  <ligand_crystal_conformation>
A

$$$$
