model13a
 OpenBabel11252210453D

 87 90  0  0  1  0  0  0  0  0999 V2000
    6.9910   -7.9420   18.1520 C   0  0  0  0  0  0  0  0  0  0  0  0
    7.2660   -5.9580   16.8940 N   0  0  0  0  0  0  0  0  0  0  0  0
    7.7990   -5.9500   19.0960 O   0  0  0  0  0  0  0  0  0  0  0  0
    6.7320   -3.6410   14.5400 O   0  0  0  0  0  0  0  0  0  0  0  0
    7.3830   -6.5280   18.1170 C   0  0  0  0  0  0  0  0  0  0  0  0
    5.7210   -3.3600   16.5500 N   0  0  0  0  0  0  0  0  0  0  0  0
    7.0720    0.9210   12.5750 C   0  0  0  0  0  0  0  0  0  0  0  0
    4.4140    0.2300   13.6500 N   0  0  0  0  0  0  0  0  0  0  0  0
    4.9990    0.8560   16.3550 O   0  0  0  0  0  0  0  0  0  0  0  0
    6.7850    2.1830   12.0320 C   0  0  0  0  0  0  0  0  0  0  0  0
    3.3980   -1.7660   13.2590 O   0  0  0  0  0  0  0  0  0  0  0  0
    7.0950    2.4670   10.6900 C   0  0  0  0  0  0  0  0  0  0  0  0
    7.6910    1.4810    9.8880 C   0  0  0  0  0  0  0  0  0  0  0  0
    7.9810    0.2180   10.4300 C   0  0  0  0  0  0  0  0  0  0  0  0
    7.6630   -0.0610   11.7700 C   0  0  0  0  0  0  0  0  0  0  0  0
    7.8050   -4.6100   16.5320 C   0  0  2  0  0  0  0  0  0  0  0  0
    6.7360   -3.8150   15.7520 C   0  0  0  0  0  0  0  0  0  0  0  0
    4.4580   -2.8820   16.0550 C   0  0  1  0  0  0  0  0  0  0  0  0
    9.1890   -4.7290   15.8400 C   0  0  0  0  0  0  0  0  0  0  0  0
    9.8070   -3.3570   15.5530 C   0  0  0  0  0  0  0  0  0  0  0  0
   10.1800   -5.4450   16.7730 C   0  0  0  0  0  0  0  0  0  0  0  0
    2.8020   -6.7910   14.7830 C   0  0  0  0  0  0  0  0  0  0  0  0
    3.0270   -7.7900   15.7460 C   0  0  0  0  0  0  0  0  0  0  0  0
    3.3450   -7.4310   17.0660 C   0  0  0  0  0  0  0  0  0  0  0  0
    3.4580   -6.0730   17.4090 C   0  0  0  0  0  0  0  0  0  0  0  0
    3.2400   -5.0790   16.4430 C   0  0  0  0  0  0  0  0  0  0  0  0
    2.8990   -5.4400   15.1360 C   0  0  0  0  0  0  0  0  0  0  0  0
    3.3380   -3.6190   16.8040 C   0  0  0  0  0  0  0  0  0  0  0  0
    4.2960   -1.3910   16.3360 C   0  0  0  0  0  0  0  0  0  0  0  0
    5.4040   -0.4190   15.8860 C   0  0  1  0  0  0  0  0  0  0  0  0
    5.6160   -0.2940   14.3420 C   0  0  2  0  0  0  0  0  0  0  0  0
    3.3890   -0.5520   13.1710 C   0  0  0  0  0  0  0  0  0  0  0  0
    2.2590    0.1750   12.4270 C   0  0  1  0  0  0  0  0  0  0  0  0
    1.7120    1.3350   13.1160 O   0  0  0  0  0  0  0  0  0  0  0  0
    6.8180    0.6490   14.0430 C   0  0  0  0  0  0  0  0  0  0  0  0
    1.5150    2.3950   12.2740 C   0  0  0  0  0  0  0  0  0  0  0  0
    1.0030    3.4540   12.5600 O   0  0  0  0  0  0  0  0  0  0  0  0
    2.1550    2.1180   11.1020 N   0  0  0  0  0  0  0  0  0  0  0  0
    2.7070    0.7690   11.0880 C   0  0  0  0  0  0  0  0  0  0  0  0
    2.3000    3.0170   10.0250 C   0  0  0  0  0  0  0  0  0  0  0  0
    3.5770    3.4200    9.6140 C   0  0  0  0  0  0  0  0  0  0  0  0
    3.7370    4.2920    8.5230 C   0  0  0  0  0  0  0  0  0  0  0  0
    2.6020    4.7650    7.8450 C   0  0  0  0  0  0  0  0  0  0  0  0
    1.3180    4.3780    8.2610 C   0  0  0  0  0  0  0  0  0  0  0  0
    1.1750    3.5050    9.3540 C   0  0  0  0  0  0  0  0  0  0  0  0
    6.0510   -8.0700   17.6110 H   0  0  0  0  0  0  0  0  0  0  0  0
    6.9260   -6.5710   16.1580 H   0  0  0  0  0  0  0  0  0  0  0  0
    7.7710   -8.5350   17.6730 H   0  0  0  0  0  0  0  0  0  0  0  0
    5.7930   -3.5420   17.5450 H   0  0  0  0  0  0  0  0  0  0  0  0
    4.2950    1.2300   13.5580 H   0  0  0  0  0  0  0  0  0  0  0  0
    4.9180    1.3870   15.5400 H   0  0  0  0  0  0  0  0  0  0  0  0
    6.3400    2.9540   12.6580 H   0  0  0  0  0  0  0  0  0  0  0  0
    6.8870    3.4550   10.2760 H   0  0  0  0  0  0  0  0  0  0  0  0
    7.9340    1.7020    8.8490 H   0  0  0  0  0  0  0  0  0  0  0  0
    8.4590   -0.5400    9.8150 H   0  0  0  0  0  0  0  0  0  0  0  0
    7.8930   -1.0320   12.1980 H   0  0  0  0  0  0  0  0  0  0  0  0
    7.9500   -4.0310   17.4520 H   0  0  0  0  0  0  0  0  0  0  0  0
    4.3830   -3.0820   14.9730 H   0  0  0  0  0  0  0  0  0  0  0  0
    9.0660   -5.2920   14.8980 H   0  0  0  0  0  0  0  0  0  0  0  0
   10.7620   -3.4530   15.0260 H   0  0  0  0  0  0  0  0  0  0  0  0
    9.1500   -2.7570   14.9120 H   0  0  0  0  0  0  0  0  0  0  0  0
    9.9830   -2.7920   16.4780 H   0  0  0  0  0  0  0  0  0  0  0  0
   11.2040   -5.3930   16.4040 H   0  0  0  0  0  0  0  0  0  0  0  0
   10.1650   -5.0020   17.7770 H   0  0  0  0  0  0  0  0  0  0  0  0
    9.9250   -6.5060   16.8780 H   0  0  0  0  0  0  0  0  0  0  0  0
    2.5580   -7.0520   13.7600 H   0  0  0  0  0  0  0  0  0  0  0  0
    2.9540   -8.8420   15.4740 H   0  0  0  0  0  0  0  0  0  0  0  0
    3.5090   -8.2020   17.8200 H   0  0  0  0  0  0  0  0  0  0  0  0
    3.7160   -5.7910   18.4270 H   0  0  0  0  0  0  0  0  0  0  0  0
    2.7100   -4.6670   14.3960 H   0  0  0  0  0  0  0  0  0  0  0  0
    2.3800   -3.1410   16.5870 H   0  0  0  0  0  0  0  0  0  0  0  0
    3.4800   -3.5070   17.8850 H   0  0  0  0  0  0  0  0  0  0  0  0
    4.2020   -1.2700   17.4170 H   0  0  0  0  0  0  0  0  0  0  0  0
    3.3490   -1.0630   15.9010 H   0  0  0  0  0  0  0  0  0  0  0  0
    6.3570   -0.7160   16.3600 H   0  0  0  0  0  0  0  0  0  0  0  0
    5.8490   -1.3040   13.9680 H   0  0  0  0  0  0  0  0  0  0  0  0
    1.4760   -0.5820   12.2780 H   0  0  0  0  0  0  0  0  0  0  0  0
    6.6990    1.6010   14.5700 H   0  0  0  0  0  0  0  0  0  0  0  0
    7.7240    0.2250   14.4940 H   0  0  0  0  0  0  0  0  0  0  0  0
    2.2980    0.1950   10.2430 H   0  0  0  0  0  0  0  0  0  0  0  0
    3.8060    0.7990   10.9920 H   0  0  0  0  0  0  0  0  0  0  0  0
    4.4470    3.0310   10.1330 H   0  0  0  0  0  0  0  0  0  0  0  0
    4.7350    4.5960    8.2010 H   0  0  0  0  0  0  0  0  0  0  0  0
    2.7180    5.4400    6.9950 H   0  0  0  0  0  0  0  0  0  0  0  0
    0.4370    4.7550    7.7400 H   0  0  0  0  0  0  0  0  0  0  0  0
    0.1820    3.2070    9.6800 H   0  0  0  0  0  0  0  0  0  0  0  0
    6.8680   -8.2510   19.1930 H   0  0  0  0  0  0  0  0  0  0  0  0
  1  5  1  0  0  0  0
  1 46  1  0  0  0  0
  1 48  1  0  0  0  0
  1 87  1  0  0  0  0
  2  5  1  0  0  0  0
  2 16  1  0  0  0  0
  2 47  1  0  0  0  0
  3  5  2  0  0  0  0
  4 17  2  0  0  0  0
  6 17  1  0  0  0  0
  6 18  1  0  0  0  0
  6 49  1  0  0  0  0
  7 10  2  0  0  0  0
  7 15  1  0  0  0  0
  7 35  1  0  0  0  0
  8 31  1  0  0  0  0
  8 32  1  0  0  0  0
  8 50  1  0  0  0  0
  9 30  1  0  0  0  0
  9 51  1  0  0  0  0
 10 12  1  0  0  0  0
 10 52  1  0  0  0  0
 11 32  2  0  0  0  0
 12 13  2  0  0  0  0
 12 53  1  0  0  0  0
 13 14  1  0  0  0  0
 13 54  1  0  0  0  0
 14 15  2  0  0  0  0
 14 55  1  0  0  0  0
 15 56  1  0  0  0  0
 16 17  1  0  0  0  0
 16 19  1  0  0  0  0
 16 57  1  1  0  0  0
 18 28  1  0  0  0  0
 18 29  1  0  0  0  0
 18 58  1  6  0  0  0
 19 20  1  0  0  0  0
 19 21  1  0  0  0  0
 19 59  1  0  0  0  0
 20 60  1  0  0  0  0
 20 61  1  0  0  0  0
 20 62  1  0  0  0  0
 21 63  1  0  0  0  0
 21 64  1  0  0  0  0
 21 65  1  0  0  0  0
 22 23  2  0  0  0  0
 22 27  1  0  0  0  0
 22 66  1  0  0  0  0
 23 24  1  0  0  0  0
 23 67  1  0  0  0  0
 24 25  2  0  0  0  0
 24 68  1  0  0  0  0
 25 26  1  0  0  0  0
 25 69  1  0  0  0  0
 26 27  2  0  0  0  0
 26 28  1  0  0  0  0
 27 70  1  0  0  0  0
 28 71  1  0  0  0  0
 28 72  1  0  0  0  0
 29 30  1  0  0  0  0
 29 73  1  0  0  0  0
 29 74  1  0  0  0  0
 30 31  1  0  0  0  0
 30 75  1  1  0  0  0
 31 35  1  0  0  0  0
 31 76  1  6  0  0  0
 32 33  1  0  0  0  0
 33 34  1  0  0  0  0
 33 39  1  0  0  0  0
 33 77  1  1  0  0  0
 34 36  1  0  0  0  0
 35 78  1  0  0  0  0
 35 79  1  0  0  0  0
 36 37  2  0  0  0  0
 36 38  1  0  0  0  0
 38 39  1  0  0  0  0
 38 40  1  0  0  0  0
 39 80  1  0  0  0  0
 39 81  1  0  0  0  0
 40 41  2  0  0  0  0
 40 45  1  0  0  0  0
 41 42  1  0  0  0  0
 41 82  1  0  0  0  0
 42 43  2  0  0  0  0
 42 83  1  0  0  0  0
 43 44  1  0  0  0  0
 43 84  1  0  0  0  0
 44 45  2  0  0  0  0
 44 85  1  0  0  0  0
 45 86  1  0  0  0  0
M  END
>  <charge>
0

>  <KI_NM>
0.85

>  <number_of_rotatable_bonds>
17

>  <lm5_entropy_jk>
42.441311785015955

>  <ligand_crystal_conformation>
A

$$$$
