2Q55
 OpenBabel11252210453D

 93 97  0  0  1  0  0  0  0  0999 V2000
    7.3770   -9.1320   18.2910 C   0  0  0  0  0  0  0  0  0  0  0  0
    7.2530   -6.3700   17.3420 N   0  0  0  0  0  0  0  0  0  0  0  0
    7.1670   -5.7490   19.5640 O   0  0  0  0  0  0  0  0  0  0  0  0
    7.4580   -7.4860   16.3830 C   0  0  0  0  0  0  0  0  0  0  0  0
    6.9530   -7.9890   19.1400 N   0  0  0  0  0  0  0  0  0  0  0  0
    6.2400   -4.7640   14.8690 O   0  0  0  0  0  0  0  0  0  0  0  0
    7.1690   -6.6540   18.7270 C   0  0  0  0  0  0  0  0  0  0  0  0
    5.6020   -3.5000   16.6640 N   0  0  0  0  0  0  0  0  0  0  0  0
    7.0280    0.7280   12.6260 C   0  0  0  0  0  0  0  0  0  0  0  0
    4.3130    0.2250   13.7230 N   0  0  0  0  0  0  0  0  0  0  0  0
    5.1080    0.6630   16.4750 O   0  0  0  0  0  0  0  0  0  0  0  0
    6.4910    1.8290   11.9400 C   0  0  0  0  0  0  0  0  0  0  0  0
    3.9170   -1.5810   12.4010 O   0  0  0  0  0  0  0  0  0  0  0  0
    6.6710    1.9480   10.5600 C   0  0  0  0  0  0  0  0  0  0  0  0
    7.3990    0.9810    9.8600 C   0  0  0  0  0  0  0  0  0  0  0  0
    7.9660   -0.0960   10.5480 C   0  0  0  0  0  0  0  0  0  0  0  0
    7.7830   -0.2260   11.9270 C   0  0  0  0  0  0  0  0  0  0  0  0
    7.5440   -4.9700   16.9600 C   0  0  2  0  0  0  0  0  0  0  0  0
    6.4050   -4.4620   16.0380 C   0  0  0  0  0  0  0  0  0  0  0  0
    4.3090   -3.0290   16.1080 C   0  0  1  0  0  0  0  0  0  0  0  0
    8.9480   -4.7150   16.3450 C   0  0  0  0  0  0  0  0  0  0  0  0
    9.0380   -3.2590   15.8650 C   0  0  0  0  0  0  0  0  0  0  0  0
   10.0220   -5.0230   17.4010 C   0  0  0  0  0  0  0  0  0  0  0  0
    2.2670   -7.1140   15.5290 C   0  0  0  0  0  0  0  0  0  0  0  0
    2.8810   -7.9500   16.4670 C   0  0  0  0  0  0  0  0  0  0  0  0
    3.5770   -7.3910   17.5440 C   0  0  0  0  0  0  0  0  0  0  0  0
    3.6600   -6.0030   17.6800 C   0  0  0  0  0  0  0  0  0  0  0  0
    3.0510   -5.1610   16.7350 C   0  0  0  0  0  0  0  0  0  0  0  0
    2.3510   -5.7260   15.6580 C   0  0  0  0  0  0  0  0  0  0  0  0
    3.1280   -3.6710   16.8930 C   0  0  0  0  0  0  0  0  0  0  0  0
    4.1880   -1.5000   16.2800 C   0  0  0  0  0  0  0  0  0  0  0  0
    5.3640   -0.6250   15.8480 C   0  0  1  0  0  0  0  0  0  0  0  0
    5.5310   -0.3770   14.3230 C   0  0  2  0  0  0  0  0  0  0  0  0
    3.6290   -0.4360   12.7270 C   0  0  0  0  0  0  0  0  0  0  0  0
    2.4480    0.2780   12.0380 C   0  0  1  0  0  0  0  0  0  0  0  0
    1.9780    1.4140   12.8310 O   0  0  0  0  0  0  0  0  0  0  0  0
    6.7560    0.5470   14.0920 C   0  0  0  0  0  0  0  0  0  0  0  0
    1.6870    2.5060   11.9920 C   0  0  0  0  0  0  0  0  0  0  0  0
    1.1480    3.4910   12.4180 O   0  0  0  0  0  0  0  0  0  0  0  0
    2.2190    2.2410   10.7160 N   0  0  0  0  0  0  0  0  0  0  0  0
    2.8070    0.8700   10.6540 C   0  0  0  0  0  0  0  0  0  0  0  0
    1.8580    2.9690    9.5290 C   0  0  0  0  0  0  0  0  0  0  0  0
    2.8280    3.1740    8.5340 C   0  0  0  0  0  0  0  0  0  0  0  0
    2.5010    3.9290    7.4050 C   0  0  0  0  0  0  0  0  0  0  0  0
    1.2300    4.4950    7.2770 C   0  0  0  0  0  0  0  0  0  0  0  0
    0.2730    4.2990    8.2790 C   0  0  0  0  0  0  0  0  0  0  0  0
    0.5700    3.5200    9.3990 C   0  0  0  0  0  0  0  0  0  0  0  0
    8.1730   -8.6670   17.0620 C   0  0  0  0  0  0  0  0  0  0  0  0
    6.4410   -9.6620   17.9550 H   0  0  0  0  0  0  0  0  0  0  0  0
    7.9940   -9.8470   18.8980 H   0  0  0  0  0  0  0  0  0  0  0  0
    8.0510   -7.1470   15.4980 H   0  0  0  0  0  0  0  0  0  0  0  0
    6.4380   -7.8150   16.0420 H   0  0  0  0  0  0  0  0  0  0  0  0
    7.0580   -8.1530   20.1650 H   0  0  0  0  0  0  0  0  0  0  0  0
    5.6880   -3.3500   17.6900 H   0  0  0  0  0  0  0  0  0  0  0  0
    4.0690    1.1650   14.0290 H   0  0  0  0  0  0  0  0  0  0  0  0
    5.9990    0.9130   16.9280 H   0  0  0  0  0  0  0  0  0  0  0  0
    5.9320    2.5950   12.4810 H   0  0  0  0  0  0  0  0  0  0  0  0
    6.2390    2.7950   10.0190 H   0  0  0  0  0  0  0  0  0  0  0  0
    7.5090    1.0660    8.7780 H   0  0  0  0  0  0  0  0  0  0  0  0
    8.5440   -0.8430   10.0050 H   0  0  0  0  0  0  0  0  0  0  0  0
    8.2320   -1.0670   12.4570 H   0  0  0  0  0  0  0  0  0  0  0  0
    7.4990   -4.3700   17.9170 H   0  0  0  0  0  0  0  0  0  0  0  0
    4.2500   -3.3080   15.0270 H   0  0  0  0  0  0  0  0  0  0  0  0
    9.1130   -5.3780   15.4610 H   0  0  0  0  0  0  0  0  0  0  0  0
   10.0970   -3.0120   15.6300 H   0  0  0  0  0  0  0  0  0  0  0  0
    8.4320   -3.1080   14.9470 H   0  0  0  0  0  0  0  0  0  0  0  0
    8.6790   -2.5570   16.6470 H   0  0  0  0  0  0  0  0  0  0  0  0
   10.9990   -4.5880   17.0950 H   0  0  0  0  0  0  0  0  0  0  0  0
    9.7440   -4.5840   18.3810 H   0  0  0  0  0  0  0  0  0  0  0  0
   10.1520   -6.1200   17.5110 H   0  0  0  0  0  0  0  0  0  0  0  0
    1.7230   -7.5450   14.6940 H   0  0  0  0  0  0  0  0  0  0  0  0
    2.8230   -9.0350   16.3620 H   0  0  0  0  0  0  0  0  0  0  0  0
    4.0590   -8.0430   18.2780 H   0  0  0  0  0  0  0  0  0  0  0  0
    4.2010   -5.5690   18.5240 H   0  0  0  0  0  0  0  0  0  0  0  0
    1.8550   -5.0810   14.9350 H   0  0  0  0  0  0  0  0  0  0  0  0
    2.1780   -3.1960   16.5510 H   0  0  0  0  0  0  0  0  0  0  0  0
    3.2390   -3.4150   17.9800 H   0  0  0  0  0  0  0  0  0  0  0  0
    4.0850   -1.3080   17.3830 H   0  0  0  0  0  0  0  0  0  0  0  0
    3.2520   -1.1650   15.7790 H   0  0  0  0  0  0  0  0  0  0  0  0
    6.3260   -1.0230   16.2590 H   0  0  0  0  0  0  0  0  0  0  0  0
    5.7340   -1.3690   13.8310 H   0  0  0  0  0  0  0  0  0  0  0  0
    1.5750   -0.4190   11.9910 H   0  0  0  0  0  0  0  0  0  0  0  0
    6.5860    1.5340   14.5920 H   0  0  0  0  0  0  0  0  0  0  0  0
    7.6440    0.0930   14.6060 H   0  0  0  0  0  0  0  0  0  0  0  0
    2.3680    0.2740    9.8160 H   0  0  0  0  0  0  0  0  0  0  0  0
    3.9180    0.9580   10.4990 H   0  0  0  0  0  0  0  0  0  0  0  0
    3.8390    2.7720    8.6390 H   0  0  0  0  0  0  0  0  0  0  0  0
    3.2530    4.0890    6.6260 H   0  0  0  0  0  0  0  0  0  0  0  0
    0.9870    5.0960    6.3970 H   0  0  0  0  0  0  0  0  0  0  0  0
   -0.7180    4.7510    8.1790 H   0  0  0  0  0  0  0  0  0  0  0  0
   -0.2030    3.3420   10.1490 H   0  0  0  0  0  0  0  0  0  0  0  0
    8.2350   -9.5160   16.3430 H   0  0  0  0  0  0  0  0  0  0  0  0
    9.2100   -8.3840   17.3590 H   0  0  0  0  0  0  0  0  0  0  0  0
  1  5  1  0  0  0  0
  1 48  1  0  0  0  0
  1 49  1  0  0  0  0
  1 50  1  0  0  0  0
  2  4  1  0  0  0  0
  2  7  1  0  0  0  0
  2 18  1  0  0  0  0
  3  7  2  0  0  0  0
  4 48  1  0  0  0  0
  4 51  1  0  0  0  0
  4 52  1  0  0  0  0
  5  7  1  0  0  0  0
  5 53  1  0  0  0  0
  6 19  2  0  0  0  0
  8 19  1  0  0  0  0
  8 20  1  0  0  0  0
  8 54  1  0  0  0  0
  9 12  2  0  0  0  0
  9 17  1  0  0  0  0
  9 37  1  0  0  0  0
 10 33  1  0  0  0  0
 10 34  1  0  0  0  0
 10 55  1  0  0  0  0
 11 32  1  0  0  0  0
 11 56  1  0  0  0  0
 12 14  1  0  0  0  0
 12 57  1  0  0  0  0
 13 34  2  0  0  0  0
 14 15  2  0  0  0  0
 14 58  1  0  0  0  0
 15 16  1  0  0  0  0
 15 59  1  0  0  0  0
 16 17  2  0  0  0  0
 16 60  1  0  0  0  0
 17 61  1  0  0  0  0
 18 19  1  0  0  0  0
 18 21  1  0  0  0  0
 18 62  1  1  0  0  0
 20 30  1  0  0  0  0
 20 31  1  0  0  0  0
 20 63  1  6  0  0  0
 21 22  1  0  0  0  0
 21 23  1  0  0  0  0
 21 64  1  0  0  0  0
 22 65  1  0  0  0  0
 22 66  1  0  0  0  0
 22 67  1  0  0  0  0
 23 68  1  0  0  0  0
 23 69  1  0  0  0  0
 23 70  1  0  0  0  0
 24 25  2  0  0  0  0
 24 29  1  0  0  0  0
 24 71  1  0  0  0  0
 25 26  1  0  0  0  0
 25 72  1  0  0  0  0
 26 27  2  0  0  0  0
 26 73  1  0  0  0  0
 27 28  1  0  0  0  0
 27 74  1  0  0  0  0
 28 29  2  0  0  0  0
 28 30  1  0  0  0  0
 29 75  1  0  0  0  0
 30 76  1  0  0  0  0
 30 77  1  0  0  0  0
 31 32  1  0  0  0  0
 31 78  1  0  0  0  0
 31 79  1  0  0  0  0
 32 33  1  0  0  0  0
 32 80  1  1  0  0  0
 33 37  1  0  0  0  0
 33 81  1  6  0  0  0
 34 35  1  0  0  0  0
 35 36  1  0  0  0  0
 35 41  1  0  0  0  0
 35 82  1  1  0  0  0
 36 38  1  0  0  0  0
 37 83  1  0  0  0  0
 37 84  1  0  0  0  0
 38 39  2  0  0  0  0
 38 40  1  0  0  0  0
 40 41  1  0  0  0  0
 40 42  1  0  0  0  0
 41 85  1  0  0  0  0
 41 86  1  0  0  0  0
 42 43  2  0  0  0  0
 42 47  1  0  0  0  0
 43 44  1  0  0  0  0
 43 87  1  0  0  0  0
 44 45  2  0  0  0  0
 44 88  1  0  0  0  0
 45 46  1  0  0  0  0
 45 89  1  0  0  0  0
 46 47  2  0  0  0  0
 46 90  1  0  0  0  0
 47 91  1  0  0  0  0
 48 92  1  0  0  0  0
 48 93  1  0  0  0  0
M  END
>  <charge>
0

>  <KI_NM>
2.04

>  <number_of_rotatable_bonds>
16

>  <lm5_entropy_jk>
39.118013893725276

>  <ligand_crystal_conformation>
A

$$$$
