3F16
 OpenBabel11252210453D

 33 33  0  0  1  0  0  0  0  0999 V2000
    7.4630   23.7710    4.5710 C   0  0  0  0  0  0  0  0  0  0  0  0
    9.2220   23.7930   -0.1870 N   0  0  0  0  0  0  0  0  0  0  0  0
    7.3710   27.6500    4.2580 O   0  0  0  0  0  0  0  0  0  0  0  0
    7.9450   26.3610    3.9040 S   0  0  0  0  0  0  0  0  0  0  0  0
    6.6080   22.7580    4.9970 C   0  0  0  0  0  0  0  0  0  0  0  0
    7.6020   26.0950    2.3330 N   0  0  0  0  0  0  0  0  0  0  0  0
    9.3420   25.9600    4.0950 O   0  0  0  0  0  0  0  0  0  0  0  0
    6.9220   25.0560    4.4050 C   0  0  0  0  0  0  0  0  0  0  0  0
    7.0190   24.2820    0.1480 O   0  0  0  0  0  0  0  0  0  0  0  0
    5.2660   23.0000    5.2450 C   0  0  0  0  0  0  0  0  0  0  0  0
    7.7990   27.6510    0.1410 O   0  0  0  0  0  0  0  0  0  0  0  0
    4.7340   24.2630    4.9930 C   0  0  0  0  0  0  0  0  0  0  0  0
    4.5020   21.9650    5.7420 O   0  0  0  0  0  0  0  0  0  0  0  0
    5.5560   25.3080    4.5710 C   0  0  0  0  0  0  0  0  0  0  0  0
    8.9480   22.5700   -0.9450 O   0  0  0  0  0  0  0  0  0  0  0  0
    9.0220   26.9920    0.4940 C   0  0  0  0  0  0  0  0  0  0  0  0
    8.2040   24.5460    0.3630 C   0  0  0  0  0  0  0  0  0  0  0  0
    8.6630   25.7120    1.3030 C   0  0  2  0  0  0  0  0  0  0  0  0
    3.1000   22.0710    6.1060 C   0  0  0  0  0  0  0  0  0  0  0  0
    8.5170   23.5400    4.3750 H   0  0  0  0  0  0  0  0  0  0  0  0
   10.2000   24.0350   -0.0390 H   0  0  0  0  0  0  0  0  0  0  0  0
    6.9740   21.7480    5.1250 H   0  0  0  0  0  0  0  0  0  0  0  0
    7.1700   25.2650    2.7510 H   0  0  0  0  0  0  0  0  0  0  0  0
    7.2020   27.4560    0.9020 H   0  0  0  0  0  0  0  0  0  0  0  0
    3.6740   24.4380    5.1190 H   0  0  0  0  0  0  0  0  0  0  0  0
    5.1160   26.2880    4.3690 H   0  0  0  0  0  0  0  0  0  0  0  0
    8.9870   21.8270   -0.2760 H   0  0  0  0  0  0  0  0  0  0  0  0
    9.6270   27.6620    1.1210 H   0  0  0  0  0  0  0  0  0  0  0  0
    9.6330   26.7610   -0.3980 H   0  0  0  0  0  0  0  0  0  0  0  0
    9.5830   25.3190    1.7850 H   0  0  0  0  0  0  0  0  0  0  0  0
    2.7210   21.0920    6.4330 H   0  0  0  0  0  0  0  0  0  0  0  0
    2.4910   22.3940    5.2490 H   0  0  0  0  0  0  0  0  0  0  0  0
    2.9580   22.7790    6.9330 H   0  0  0  0  0  0  0  0  0  0  0  0
  1  8  2  0  0  0  0
  1  5  1  0  0  0  0
  1 20  1  0  0  0  0
  2 15  1  0  0  0  0
  2 17  1  0  0  0  0
  2 21  1  0  0  0  0
  3  4  2  0  0  0  0
  4  6  1  0  0  0  0
  4  7  2  0  0  0  0
  4  8  1  0  0  0  0
  5 10  2  0  0  0  0
  5 22  1  0  0  0  0
  6 18  1  0  0  0  0
  6 23  1  0  0  0  0
  8 14  1  0  0  0  0
  9 17  2  0  0  0  0
 10 12  1  0  0  0  0
 10 13  1  0  0  0  0
 11 16  1  0  0  0  0
 11 24  1  0  0  0  0
 12 14  2  0  0  0  0
 12 25  1  0  0  0  0
 13 19  1  0  0  0  0
 14 26  1  0  0  0  0
 15 27  1  0  0  0  0
 16 18  1  0  0  0  0
 16 28  1  0  0  0  0
 16 29  1  0  0  0  0
 17 18  1  0  0  0  0
 18 30  1  1  0  0  0
 19 31  1  0  0  0  0
 19 32  1  0  0  0  0
 19 33  1  0  0  0  0
M  END
>  <lm5_entropy_jk>
30.537322729053685

>  <number_of_rotatable_bonds>
7

>  <deltaG_kcalmol>
-11.24

>  <charge>
0

$$$$
