2IKG
 OpenBabel11252210453D

 30 31  0  0  0  0  0  0  0  0999 V2000
   17.9390   -3.3000   10.1550 N   0  3  0  0  0  0  0  0  0  0  0  0
   19.1170   -3.5990   10.3100 O   0  5  0  0  0  0  0  0  0  0  0  0
   14.6420   -4.8390   11.0760 C   0  0  0  0  0  0  0  0  0  0  0  0
   16.0410   -7.4550   14.4100 N   0  0  0  0  0  0  0  0  0  0  0  0
   17.5670   -2.3630    9.4610 O   0  0  0  0  0  0  0  0  0  0  0  0
   15.5860   -4.0880   10.3810 C   0  0  0  0  0  0  0  0  0  0  0  0
   17.8750   -6.1010   14.5480 N   0  0  0  0  0  0  0  0  0  0  0  0
   16.9180   -4.1210   10.8250 C   0  0  0  0  0  0  0  0  0  0  0  0
   17.3030   -4.8820   11.9370 C   0  0  0  0  0  0  0  0  0  0  0  0
   16.3370   -5.6260   12.6380 C   0  0  0  0  0  0  0  0  0  0  0  0
   15.0040   -5.6020   12.1940 C   0  0  0  0  0  0  0  0  0  0  0  0
   16.7490   -6.3580   13.8400 C   0  0  0  0  0  0  0  0  0  0  0  0
   16.7670   -7.8380   15.4560 C   0  0  0  0  0  0  0  0  0  0  0  0
   16.6750   -8.9340   16.4400 C   0  0  0  0  0  0  0  0  0  0  0  0
   15.7220   -8.6120   17.6170 C   0  0  0  0  0  0  0  0  0  0  0  0
   16.2410   -7.4970   18.5270 C   0  0  0  0  0  0  0  0  0  0  0  0
   15.5820   -6.1120   18.2430 C   0  0  0  0  0  0  0  0  0  0  0  0
   15.1110   -5.5030   19.2330 O   0  0  0  0  0  0  0  0  0  0  0  0
   15.5510   -5.7030   17.0630 O   0  5  0  0  0  0  0  0  0  0  0  0
   17.9300   -7.0070   15.5660 O   0  0  0  0  0  0  0  0  0  0  0  0
   17.3460   -7.4120   18.4290 H   0  0  0  0  0  0  0  0  0  0  0  0
   13.5970   -4.8120   10.7570 H   0  0  0  0  0  0  0  0  0  0  0  0
   15.2830   -3.4820    9.5240 H   0  0  0  0  0  0  0  0  0  0  0  0
   18.3510   -4.8610   12.2610 H   0  0  0  0  0  0  0  0  0  0  0  0
   14.2150   -6.1440   12.7200 H   0  0  0  0  0  0  0  0  0  0  0  0
   17.6910   -9.1610   16.8620 H   0  0  0  0  0  0  0  0  0  0  0  0
   15.6400   -9.5590   18.2130 H   0  0  0  0  0  0  0  0  0  0  0  0
   16.0460   -7.7950   19.5790 H   0  0  0  0  0  0  0  0  0  0  0  0
   16.3260   -9.8770   15.9370 H   0  0  0  0  0  0  0  0  0  0  0  0
   14.7110   -8.3750   17.2140 H   0  0  0  0  0  0  0  0  0  0  0  0
  1  2  1  0  0  0  0
  1  5  2  0  0  0  0
  1  8  1  0  0  0  0
  3  6  2  0  0  0  0
  3 11  1  0  0  0  0
  3 22  1  0  0  0  0
  4 12  1  0  0  0  0
  4 13  2  0  0  0  0
  6  8  1  0  0  0  0
  6 23  1  0  0  0  0
  7 12  2  0  0  0  0
  7 20  1  0  0  0  0
  8  9  2  0  0  0  0
  9 10  1  0  0  0  0
  9 24  1  0  0  0  0
 10 11  2  0  0  0  0
 10 12  1  0  0  0  0
 11 25  1  0  0  0  0
 13 14  1  0  0  0  0
 13 20  1  0  0  0  0
 14 15  1  0  0  0  0
 14 26  1  0  0  0  0
 14 29  1  0  0  0  0
 15 16  1  0  0  0  0
 15 27  1  0  0  0  0
 15 30  1  0  0  0  0
 16 17  1  0  0  0  0
 16 21  1  0  0  0  0
 16 28  1  0  0  0  0
 17 18  2  0  0  0  0
 17 19  1  0  0  0  0
M  CHG  3   1   1   2  -1  19  -1
M  END
>  <lm5_entropy_jk>
21.679325925993282

>  <number_of_rotatable_bonds>
6

>  <deltaG_kcalmol>
-8.46

>  <charge>
-1

$$$$
