model35
 OpenBabel11252210453D

 75 76  0  0  1  0  0  0  0  0999 V2000
    8.3150   18.3680    8.8660 N   0  0  0  0  0  0  0  0  0  0  0  0
   11.2270   17.8600    7.5610 C   0  0  1  0  0  0  0  0  0  0  0  0
   12.1190   18.6870    6.8220 O   0  0  0  0  0  0  0  0  0  0  0  0
    9.8300   18.1590    6.9800 C   0  0  0  0  0  0  0  0  0  0  0  0
    4.7310   17.5160    9.4140 N   0  0  0  0  0  0  0  0  0  0  0  0
   11.3800   15.0120    4.0470 O   0  0  0  0  0  0  0  0  0  0  0  0
    8.7280   17.6050    7.8070 C   0  0  0  0  0  0  0  0  0  0  0  0
   11.7920   15.9440    6.0120 N   0  0  0  0  0  0  0  0  0  0  0  0
    5.6560   19.3170    8.3760 O   0  0  0  0  0  0  0  0  0  0  0  0
    7.1560   17.9540    9.7290 C   0  0  1  0  0  0  0  0  0  0  0  0
    8.2290   16.5320    7.5550 O   0  0  0  0  0  0  0  0  0  0  0  0
    7.3430   18.4330   11.1960 C   0  0  0  0  0  0  0  0  0  0  0  0
   10.2230   14.2650    5.8990 O   0  0  0  0  0  0  0  0  0  0  0  0
    6.3920   17.7420   12.1800 C   0  0  0  0  0  0  0  0  0  0  0  0
    7.1250   19.9460   11.3370 C   0  0  0  0  0  0  0  0  0  0  0  0
    5.7970   18.3410    9.0970 C   0  0  0  0  0  0  0  0  0  0  0  0
    3.3350   17.7420    8.9460 C   0  0  0  0  0  0  0  0  0  0  0  0
    2.7380   16.5300    8.1680 C   0  0  0  0  0  0  0  0  0  0  0  0
    3.5880   16.1220    7.0610 O   0  0  0  0  0  0  0  0  0  0  0  0
    4.0720   17.1610    6.1790 C   0  0  0  0  0  0  0  0  0  0  0  0
    4.4380   16.5130    4.8340 C   0  0  0  0  0  0  0  0  0  0  0  0
    5.3540   17.3990    4.1520 O   0  0  0  0  0  0  0  0  0  0  0  0
    6.7530   17.1790    4.4440 C   0  0  0  0  0  0  0  0  0  0  0  0
    7.4060   16.5980    3.1800 C   0  0  0  0  0  0  0  0  0  0  0  0
    8.6140   15.9390    3.6020 O   0  0  0  0  0  0  0  0  0  0  0  0
    9.5350   15.5780    2.5520 C   0  0  0  0  0  0  0  0  0  0  0  0
   10.4590   14.4460    3.0790 C   0  0  0  0  0  0  0  0  0  0  0  0
   11.6510   16.3440    7.4210 C   0  0  1  0  0  0  0  0  0  0  0  0
   11.0410   15.0040    5.3700 C   0  0  0  0  0  0  0  0  0  0  0  0
   12.9860   16.0430    8.1640 C   0  0  0  0  0  0  0  0  0  0  0  0
   13.4850   14.6130    7.9960 C   0  0  0  0  0  0  0  0  0  0  0  0
   12.7500   13.5420    8.5220 C   0  0  0  0  0  0  0  0  0  0  0  0
   13.1890   12.2180    8.3600 C   0  0  0  0  0  0  0  0  0  0  0  0
   14.3820   11.9590    7.6670 C   0  0  0  0  0  0  0  0  0  0  0  0
   15.1390   13.0260    7.1550 C   0  0  0  0  0  0  0  0  0  0  0  0
   14.6900   14.3490    7.3240 C   0  0  0  0  0  0  0  0  0  0  0  0
   15.2740   15.1700    6.9200 H   0  0  0  0  0  0  0  0  0  0  0  0
    8.7050   19.3040    8.9520 H   0  0  0  0  0  0  0  0  0  0  0  0
   11.2550   18.1360    8.6310 H   0  0  0  0  0  0  0  0  0  0  0  0
   12.7560   19.0820    7.4750 H   0  0  0  0  0  0  0  0  0  0  0  0
    9.7230   17.7000    5.9920 H   0  0  0  0  0  0  0  0  0  0  0  0
    4.9550   16.6730    9.9400 H   0  0  0  0  0  0  0  0  0  0  0  0
   12.4690   16.4060    5.4220 H   0  0  0  0  0  0  0  0  0  0  0  0
    7.1160   16.8630    9.7560 H   0  0  0  0  0  0  0  0  0  0  0  0
    8.3720   18.1700   11.4890 H   0  0  0  0  0  0  0  0  0  0  0  0
    6.4800   16.6510   12.1240 H   0  0  0  0  0  0  0  0  0  0  0  0
    7.7370   20.5030   10.6190 H   0  0  0  0  0  0  0  0  0  0  0  0
    3.2930   18.6410    8.3120 H   0  0  0  0  0  0  0  0  0  0  0  0
    1.7320   16.7910    7.8010 H   0  0  0  0  0  0  0  0  0  0  0  0
    4.9670   17.6340    6.6070 H   0  0  0  0  0  0  0  0  0  0  0  0
    3.5240   16.3620    4.2410 H   0  0  0  0  0  0  0  0  0  0  0  0
    6.8980   16.4840    5.2850 H   0  0  0  0  0  0  0  0  0  0  0  0
    7.6090   17.4040    2.4620 H   0  0  0  0  0  0  0  0  0  0  0  0
   10.1430   16.4470    2.2560 H   0  0  0  0  0  0  0  0  0  0  0  0
   11.0130   13.9960    2.2410 H   0  0  0  0  0  0  0  0  0  0  0  0
   10.8520   15.7330    7.8710 H   0  0  0  0  0  0  0  0  0  0  0  0
   12.8640   16.2610    9.2320 H   0  0  0  0  0  0  0  0  0  0  0  0
   11.8340   13.7430    9.0620 H   0  0  0  0  0  0  0  0  0  0  0  0
   12.6040   11.3960    8.7710 H   0  0  0  0  0  0  0  0  0  0  0  0
   14.7220   10.9320    7.5330 H   0  0  0  0  0  0  0  0  0  0  0  0
   16.0710   12.8290    6.6250 H   0  0  0  0  0  0  0  0  0  0  0  0
   13.7480   16.7450    7.8130 H   0  0  0  0  0  0  0  0  0  0  0  0
    9.6550   19.2290    6.8730 H   0  0  0  0  0  0  0  0  0  0  0  0
    5.3430   18.0080   11.9940 H   0  0  0  0  0  0  0  0  0  0  0  0
    7.3470   20.3010   12.3510 H   0  0  0  0  0  0  0  0  0  0  0  0
    2.6930   17.9620    9.8140 H   0  0  0  0  0  0  0  0  0  0  0  0
    2.6030   15.6850    8.8620 H   0  0  0  0  0  0  0  0  0  0  0  0
    3.3220   17.9460    6.0150 H   0  0  0  0  0  0  0  0  0  0  0  0
    4.8910   15.5270    5.0040 H   0  0  0  0  0  0  0  0  0  0  0  0
    7.2510   18.1170    4.7190 H   0  0  0  0  0  0  0  0  0  0  0  0
    6.7190   15.8830    2.7070 H   0  0  0  0  0  0  0  0  0  0  0  0
    8.9940   15.2210    1.6630 H   0  0  0  0  0  0  0  0  0  0  0  0
    9.8520   13.6470    3.5300 H   0  0  0  0  0  0  0  0  0  0  0  0
    6.0820   20.2130   11.1270 H   0  0  0  0  0  0  0  0  0  0  0  0
    6.6140   18.0370   13.2140 H   0  0  0  0  0  0  0  0  0  0  0  0
  1 38  1  0  0  0  0
  1 10  1  0  0  0  0
  2 39  1  1  0  0  0
  2 28  1  0  0  0  0
  3 40  1  0  0  0  0
  3  2  1  0  0  0  0
  4  2  1  0  0  0  0
  4  7  1  0  0  0  0
  5 42  1  0  0  0  0
  6 29  1  0  0  0  0
  7  1  1  0  0  0  0
  8 28  1  0  0  0  0
  9 16  2  0  0  0  0
 10 44  1  1  0  0  0
 10 12  1  0  0  0  0
 11  7  2  0  0  0  0
 12 15  1  0  0  0  0
 12 45  1  0  0  0  0
 12 14  1  0  0  0  0
 14 75  1  0  0  0  0
 15 65  1  0  0  0  0
 16  5  1  0  0  0  0
 16 10  1  0  0  0  0
 17 66  1  0  0  0  0
 17  5  1  0  0  0  0
 18 67  1  0  0  0  0
 18 17  1  0  0  0  0
 19 18  1  0  0  0  0
 20 50  1  0  0  0  0
 20 19  1  0  0  0  0
 21 69  1  0  0  0  0
 21 20  1  0  0  0  0
 22 23  1  0  0  0  0
 22 21  1  0  0  0  0
 23 70  1  0  0  0  0
 23 52  1  0  0  0  0
 24 71  1  0  0  0  0
 24 23  1  0  0  0  0
 25 24  1  0  0  0  0
 26 25  1  0  0  0  0
 26 27  1  0  0  0  0
 27 73  1  0  0  0  0
 27  6  1  0  0  0  0
 28 56  1  1  0  0  0
 28 30  1  0  0  0  0
 29 13  2  0  0  0  0
 29  8  1  0  0  0  0
 30 57  1  0  0  0  0
 31 30  1  0  0  0  0
 31 32  2  0  0  0  0
 32 58  1  0  0  0  0
 33 32  1  0  0  0  0
 33 59  1  0  0  0  0
 34 33  2  0  0  0  0
 35 36  2  0  0  0  0
 35 34  1  0  0  0  0
 36 31  1  0  0  0  0
 37 36  1  0  0  0  0
 41  4  1  0  0  0  0
 43  8  1  0  0  0  0
 46 14  1  0  0  0  0
 47 15  1  0  0  0  0
 48 17  1  0  0  0  0
 49 18  1  0  0  0  0
 51 21  1  0  0  0  0
 53 24  1  0  0  0  0
 54 26  1  0  0  0  0
 55 27  1  0  0  0  0
 60 34  1  0  0  0  0
 61 35  1  0  0  0  0
 62 30  1  0  0  0  0
 63  4  1  0  0  0  0
 64 14  1  0  0  0  0
 68 20  1  0  0  0  0
 72 26  1  0  0  0  0
 74 15  1  0  0  0  0
M  END
>  <IC50_NM>
850

>  <number_of_rotatable_bonds>
3

>  <charge>
0

>  <lm5_entropy_jk>
31.13362949117809

$$$$
