1K1J
 OpenBabel11252210453D

 68 71  0  0  1  0  0  0  0  0999 V2000
    0.6510   21.9540   16.6600 C   0  0  0  0  0  0  0  0  0  0  0  0
    0.1440   21.2150   15.5650 C   0  0  0  0  0  0  0  0  0  0  0  0
    1.0230   20.7020   14.5870 C   0  0  0  0  0  0  0  0  0  0  0  0
    2.4040   20.9110   14.7250 C   0  0  0  0  0  0  0  0  0  0  0  0
    4.2970   21.8480   15.9260 C   0  0  0  0  0  0  0  0  0  0  0  0
    4.8150   22.5910   17.0010 C   0  0  0  0  0  0  0  0  0  0  0  0
    3.9410   23.1240   17.9620 C   0  0  0  0  0  0  0  0  0  0  0  0
    2.5540   22.9180   17.8520 C   0  0  0  0  0  0  0  0  0  0  0  0
    2.0370   22.1660   16.7770 C   0  0  0  0  0  0  0  0  0  0  0  0
    2.9140   21.6340   15.8120 C   0  0  0  0  0  0  0  0  0  0  0  0
   -1.6180   21.0230   15.3800 S   0  0  0  0  0  0  0  0  0  0  0  0
   -1.9610   13.8570   15.0190 C   0  0  0  0  0  0  0  0  0  0  0  0
   -1.9680   19.5250   15.9870 N   0  0  0  0  0  0  0  0  0  0  0  0
   -1.5970   19.1510   17.3910 C   0  0  1  0  0  0  0  0  0  0  0  0
   -1.9720   20.8900   13.9630 O   0  0  0  0  0  0  0  0  0  0  0  0
   -2.3220   21.9650   16.2650 O   0  0  0  0  0  0  0  0  0  0  0  0
   -2.6180   18.0520   17.8320 C   0  0  0  0  0  0  0  0  0  0  0  0
   -0.1020   18.7060   17.5870 C   0  0  0  0  0  0  0  0  0  0  0  0
    0.5430   18.2820   16.6380 O   0  0  0  0  0  0  0  0  0  0  0  0
    2.0280   20.3490   20.8310 C   0  0  1  0  0  0  0  0  0  0  0  0
   -1.6800   12.5210   14.9560 N   0  3  0  0  0  0  0  0  0  0  0  0
    2.8150   21.6100   21.2600 C   0  0  0  0  0  0  0  0  0  0  0  0
    2.3330   22.7310   21.3320 O   0  0  0  0  0  0  0  0  0  0  0  0
   -2.5200   14.4570   13.9240 N   0  0  0  0  0  0  0  0  0  0  0  0
    4.0510   21.2810   21.7570 O   0  0  0  0  0  0  0  0  0  0  0  0
   -1.7910   14.6030   16.3120 C   0  0  0  0  0  0  0  0  0  0  0  0
   -1.2120   13.9710   17.4410 C   0  0  0  0  0  0  0  0  0  0  0  0
   -1.0820   14.6530   18.6600 C   0  0  0  0  0  0  0  0  0  0  0  0
   -1.5340   15.9720   18.7790 C   0  0  0  0  0  0  0  0  0  0  0  0
   -2.1070   16.6230   17.6820 C   0  0  0  0  0  0  0  0  0  0  0  0
   -2.2180   15.9500   16.4560 C   0  0  0  0  0  0  0  0  0  0  0  0
   -0.2090   19.3240   20.1020 C   0  0  0  0  0  0  0  0  0  0  0  0
    0.5170   20.6230   20.5300 C   0  0  0  0  0  0  0  0  0  0  0  0
    2.6680   19.6250   19.6030 C   0  0  0  0  0  0  0  0  0  0  0  0
    1.8480   18.3900   19.1520 C   0  0  0  0  0  0  0  0  0  0  0  0
    0.4410   18.7650   18.8880 N   0  0  0  0  0  0  0  0  0  0  0  0
    4.9280   22.3220   22.2810 C   0  0  0  0  0  0  0  0  0  0  0  0
    4.4550   22.8530   23.1210 H   0  0  0  0  0  0  0  0  0  0  0  0
   -0.0110   22.3900   17.4130 H   0  0  0  0  0  0  0  0  0  0  0  0
    0.6550   20.1600   13.7120 H   0  0  0  0  0  0  0  0  0  0  0  0
    3.0870   20.5240   13.9730 H   0  0  0  0  0  0  0  0  0  0  0  0
    4.9730   21.4360   15.1780 H   0  0  0  0  0  0  0  0  0  0  0  0
    5.8900   22.7560   17.0890 H   0  0  0  0  0  0  0  0  0  0  0  0
    4.3380   23.7020   18.7970 H   0  0  0  0  0  0  0  0  0  0  0  0
    1.8880   23.3390   18.6050 H   0  0  0  0  0  0  0  0  0  0  0  0
   -1.3380   19.0580   15.3320 H   0  0  0  0  0  0  0  0  0  0  0  0
   -1.7280   20.0300   18.0440 H   0  0  0  0  0  0  0  0  0  0  0  0
   -3.5510   18.1760   17.2640 H   0  0  0  0  0  0  0  0  0  0  0  0
    2.1060   19.6860   21.7010 H   0  0  0  0  0  0  0  0  0  0  0  0
   -1.4960   12.0250   15.8210 H   0  0  0  0  0  0  0  0  0  0  0  0
   -3.0010   13.8260   13.2790 H   0  0  0  0  0  0  0  0  0  0  0  0
   -0.8440   12.9500   17.3950 H   0  0  0  0  0  0  0  0  0  0  0  0
   -0.6280   14.1630   19.5210 H   0  0  0  0  0  0  0  0  0  0  0  0
   -1.4150   16.5000   19.7210 H   0  0  0  0  0  0  0  0  0  0  0  0
   -2.6350   16.5120   15.6290 H   0  0  0  0  0  0  0  0  0  0  0  0
   -1.2810   19.5120   19.9620 H   0  0  0  0  0  0  0  0  0  0  0  0
    0.4410   21.3700   19.7280 H   0  0  0  0  0  0  0  0  0  0  0  0
    3.7030   19.3330   19.8340 H   0  0  0  0  0  0  0  0  0  0  0  0
    1.8850   17.5960   19.9100 H   0  0  0  0  0  0  0  0  0  0  0  0
    5.1610   23.0680   21.5070 H   0  0  0  0  0  0  0  0  0  0  0  0
   -2.9200   18.2200   18.8720 H   0  0  0  0  0  0  0  0  0  0  0  0
   -2.1550   11.9740   14.2370 H   0  0  0  0  0  0  0  0  0  0  0  0
   -2.9220   15.3860   14.0210 H   0  0  0  0  0  0  0  0  0  0  0  0
   -0.1370   18.5840   20.9130 H   0  0  0  0  0  0  0  0  0  0  0  0
    0.0280   21.0730   21.4080 H   0  0  0  0  0  0  0  0  0  0  0  0
    2.7320   20.3240   18.7570 H   0  0  0  0  0  0  0  0  0  0  0  0
    2.2920   17.9710   18.2410 H   0  0  0  0  0  0  0  0  0  0  0  0
    5.8780   21.9040   22.6400 H   0  0  0  0  0  0  0  0  0  0  0  0
  1  2  2  0  0  0  0
  1  9  1  0  0  0  0
  1 39  1  0  0  0  0
  2  3  1  0  0  0  0
  2 11  1  0  0  0  0
  3  4  2  0  0  0  0
  3 40  1  0  0  0  0
  4 10  1  0  0  0  0
  4 41  1  0  0  0  0
  5  6  2  0  0  0  0
  5 10  1  0  0  0  0
  5 42  1  0  0  0  0
  6  7  1  0  0  0  0
  6 43  1  0  0  0  0
  7  8  2  0  0  0  0
  7 44  1  0  0  0  0
  8  9  1  0  0  0  0
  8 45  1  0  0  0  0
  9 10  2  0  0  0  0
 11 13  1  0  0  0  0
 11 15  2  0  0  0  0
 11 16  2  0  0  0  0
 12 21  2  0  0  0  0
 12 24  1  0  0  0  0
 12 26  1  0  0  0  0
 13 14  1  0  0  0  0
 13 46  1  0  0  0  0
 14 17  1  0  0  0  0
 14 18  1  0  0  0  0
 14 47  1  1  0  0  0
 17 30  1  0  0  0  0
 17 48  1  0  0  0  0
 17 61  1  0  0  0  0
 18 19  2  0  0  0  0
 18 36  1  0  0  0  0
 20 22  1  0  0  0  0
 20 33  1  0  0  0  0
 20 34  1  0  0  0  0
 20 49  1  1  0  0  0
 21 50  1  0  0  0  0
 21 62  1  0  0  0  0
 22 23  2  0  0  0  0
 22 25  1  0  0  0  0
 24 51  1  0  0  0  0
 24 63  1  0  0  0  0
 25 37  1  0  0  0  0
 26 27  2  0  0  0  0
 26 31  1  0  0  0  0
 27 28  1  0  0  0  0
 27 52  1  0  0  0  0
 28 29  2  0  0  0  0
 28 53  1  0  0  0  0
 29 30  1  0  0  0  0
 29 54  1  0  0  0  0
 30 31  2  0  0  0  0
 31 55  1  0  0  0  0
 32 33  1  0  0  0  0
 32 36  1  0  0  0  0
 32 56  1  0  0  0  0
 32 64  1  0  0  0  0
 33 57  1  0  0  0  0
 33 65  1  0  0  0  0
 34 35  1  0  0  0  0
 34 58  1  0  0  0  0
 34 66  1  0  0  0  0
 35 36  1  0  0  0  0
 35 59  1  0  0  0  0
 35 67  1  0  0  0  0
 37 38  1  0  0  0  0
 37 60  1  0  0  0  0
 37 68  1  0  0  0  0
M  CHG  1  21   1
M  END
>  <deltaG_kcalmol>
-10.31

>  <charge>
1

>  <lm5_entropy_jk>
31.910199423359543

>  <number_of_rotatable_bonds>
10

$$$$
