39-31.pdb
 OpenBabel11252210453D

 78 79  0  0  1  0  0  0  0  0999 V2000
   11.1860   17.8920    7.6610 C   0  0  2  0  0  0  0  0  0  0  0  0
    8.2370   18.4640    9.0980 N   0  0  0  0  0  0  0  0  0  0  0  0
    7.3740   19.9690   11.1850 O   0  0  0  0  0  0  0  0  0  0  0  0
    9.7980   18.3170    7.1400 C   0  0  0  0  0  0  0  0  0  0  0  0
    4.6710   17.4670    9.4360 N   0  0  0  0  0  0  0  0  0  0  0  0
   12.0950   18.7160    6.8960 O   0  0  0  0  0  0  0  0  0  0  0  0
    8.6460   17.7580    7.9480 C   0  0  0  0  0  0  0  0  0  0  0  0
   11.6430   16.0970    5.9850 N   0  0  0  0  0  0  0  0  0  0  0  0
    5.6340   19.1510    8.1880 O   0  0  0  0  0  0  0  0  0  0  0  0
    7.0450   18.0030    9.8300 C   0  0  1  0  0  0  0  0  0  0  0  0
    8.0980   16.7060    7.6510 O   0  0  0  0  0  0  0  0  0  0  0  0
    6.8680   18.6250   11.2480 C   0  0  1  0  0  0  0  0  0  0  0  0
   10.3130   14.2130    5.9880 O   0  0  0  0  0  0  0  0  0  0  0  0
    7.5850   17.8050   12.3180 C   0  0  0  0  0  0  0  0  0  0  0  0
    5.7470   18.2680    9.0150 C   0  0  0  0  0  0  0  0  0  0  0  0
    3.3970   17.3890    8.6760 C   0  0  0  0  0  0  0  0  0  0  0  0
    3.3600   16.2060    7.6910 C   0  0  0  0  0  0  0  0  0  0  0  0
    4.3690   16.3120    6.5390 C   0  0  0  0  0  0  0  0  0  0  0  0
    3.9530   17.3170    5.4520 C   0  0  0  0  0  0  0  0  0  0  0  0
    5.1380   17.8720    4.6430 C   0  0  0  0  0  0  0  0  0  0  0  0
    6.0810   16.7780    4.1160 C   0  0  0  0  0  0  0  0  0  0  0  0
    6.9500   17.2710    2.9490 C   0  0  0  0  0  0  0  0  0  0  0  0
    7.9610   16.2110    2.4800 C   0  0  0  0  0  0  0  0  0  0  0  0
    9.2160   16.1520    3.3610 C   0  0  0  0  0  0  0  0  0  0  0  0
   10.0560   14.9010    3.0640 C   0  0  0  0  0  0  0  0  0  0  0  0
   11.3510   14.8550    3.8910 C   0  0  0  0  0  0  0  0  0  0  0  0
   11.5500   16.3820    7.4280 C   0  0  1  0  0  0  0  0  0  0  0  0
   11.0470   14.9730    5.3760 C   0  0  0  0  0  0  0  0  0  0  0  0
   12.8780   16.0560    8.1710 C   0  0  0  0  0  0  0  0  0  0  0  0
   13.3540   14.6420    7.9710 C   0  0  0  0  0  0  0  0  0  0  0  0
   12.7210   13.5740    8.6270 C   0  0  0  0  0  0  0  0  0  0  0  0
   13.1340   12.2570    8.4150 C   0  0  0  0  0  0  0  0  0  0  0  0
   14.2070   11.9860    7.5590 C   0  0  0  0  0  0  0  0  0  0  0  0
   14.8740   13.0450    6.9370 C   0  0  0  0  0  0  0  0  0  0  0  0
   14.4540   14.3620    7.1450 C   0  0  0  0  0  0  0  0  0  0  0  0
   15.0020   15.1730    6.6690 H   0  0  0  0  0  0  0  0  0  0  0  0
    8.5490   19.4290    9.2910 H   0  0  0  0  0  0  0  0  0  0  0  0
   11.2950   18.1390    8.7430 H   0  0  0  0  0  0  0  0  0  0  0  0
   12.7660   19.1440    7.5440 H   0  0  0  0  0  0  0  0  0  0  0  0
    9.6840   17.9570    6.0810 H   0  0  0  0  0  0  0  0  0  0  0  0
    4.8830   16.5970    9.9640 H   0  0  0  0  0  0  0  0  0  0  0  0
   12.4460   16.5530    5.5200 H   0  0  0  0  0  0  0  0  0  0  0  0
    7.1470   16.8900    9.9850 H   0  0  0  0  0  0  0  0  0  0  0  0
    5.7770   18.6840   11.5090 H   0  0  0  0  0  0  0  0  0  0  0  0
    7.1420   20.4440   12.0120 H   0  0  0  0  0  0  0  0  0  0  0  0
    7.1200   16.7900   12.3690 H   0  0  0  0  0  0  0  0  0  0  0  0
    3.2250   18.3550    8.1360 H   0  0  0  0  0  0  0  0  0  0  0  0
    2.3230   16.1400    7.2780 H   0  0  0  0  0  0  0  0  0  0  0  0
    4.4650   15.3040    6.0730 H   0  0  0  0  0  0  0  0  0  0  0  0
    3.4320   18.1850    5.9210 H   0  0  0  0  0  0  0  0  0  0  0  0
    5.7210   18.5700    5.2850 H   0  0  0  0  0  0  0  0  0  0  0  0
    5.4810   15.9090    3.7660 H   0  0  0  0  0  0  0  0  0  0  0  0
    7.4930   18.1960    3.2450 H   0  0  0  0  0  0  0  0  0  0  0  0
    8.2680   16.4490    1.4350 H   0  0  0  0  0  0  0  0  0  0  0  0
    8.9110   16.1490    4.4320 H   0  0  0  0  0  0  0  0  0  0  0  0
   10.3390   14.8980    1.9830 H   0  0  0  0  0  0  0  0  0  0  0  0
   12.0280   15.6740    3.5460 H   0  0  0  0  0  0  0  0  0  0  0  0
   10.7310   15.7570    7.8700 H   0  0  0  0  0  0  0  0  0  0  0  0
   12.7180   16.2460    9.2630 H   0  0  0  0  0  0  0  0  0  0  0  0
   11.9220   13.7800    9.3310 H   0  0  0  0  0  0  0  0  0  0  0  0
   12.6280   11.4390    8.9300 H   0  0  0  0  0  0  0  0  0  0  0  0
   14.5330   10.9580    7.3910 H   0  0  0  0  0  0  0  0  0  0  0  0
   15.7310   12.8470    6.2880 H   0  0  0  0  0  0  0  0  0  0  0  0
   13.6620   16.7730    7.8280 H   0  0  0  0  0  0  0  0  0  0  0  0
    9.7720   19.4320    7.1230 H   0  0  0  0  0  0  0  0  0  0  0  0
    7.4780   18.2810   13.3200 H   0  0  0  0  0  0  0  0  0  0  0  0
    2.5830   17.2520    9.4420 H   0  0  0  0  0  0  0  0  0  0  0  0
    3.5590   15.2610    8.2560 H   0  0  0  0  0  0  0  0  0  0  0  0
    5.3670   16.5960    6.9480 H   0  0  0  0  0  0  0  0  0  0  0  0
    3.2350   16.8210    4.7570 H   0  0  0  0  0  0  0  0  0  0  0  0
    4.7250   18.4480    3.7830 H   0  0  0  0  0  0  0  0  0  0  0  0
    6.7440   16.4500    4.9490 H   0  0  0  0  0  0  0  0  0  0  0  0
    6.2840   17.5090    2.0890 H   0  0  0  0  0  0  0  0  0  0  0  0
    7.4610   15.2170    2.4750 H   0  0  0  0  0  0  0  0  0  0  0  0
    9.8370   17.0590    3.1730 H   0  0  0  0  0  0  0  0  0  0  0  0
    9.4620   13.9840    3.2750 H   0  0  0  0  0  0  0  0  0  0  0  0
   11.8670   13.8810    3.7040 H   0  0  0  0  0  0  0  0  0  0  0  0
    8.6630   17.6900   12.0830 H   0  0  0  0  0  0  0  0  0  0  0  0
  1 38  1  1  0  0  0
  1 27  1  0  0  0  0
  2 37  1  0  0  0  0
  2 10  1  0  0  0  0
  3 45  1  0  0  0  0
  4 65  1  0  0  0  0
  4  1  1  0  0  0  0
  4  7  1  0  0  0  0
  5 41  1  0  0  0  0
  6 39  1  0  0  0  0
  6  1  1  0  0  0  0
  7  2  1  0  0  0  0
  8 27  1  0  0  0  0
  9 15  2  0  0  0  0
 10 43  1  1  0  0  0
 10 12  1  0  0  0  0
 11  7  2  0  0  0  0
 12  3  1  0  0  0  0
 12 44  1  1  0  0  0
 12 14  1  0  0  0  0
 14 66  1  0  0  0  0
 15  5  1  0  0  0  0
 15 10  1  0  0  0  0
 16 67  1  0  0  0  0
 16  5  1  0  0  0  0
 17 68  1  0  0  0  0
 17 16  1  0  0  0  0
 18 69  1  0  0  0  0
 18 17  1  0  0  0  0
 19 50  1  0  0  0  0
 19 18  1  0  0  0  0
 20 51  1  0  0  0  0
 20 19  1  0  0  0  0
 21 20  1  0  0  0  0
 21 72  1  0  0  0  0
 22 53  1  0  0  0  0
 22 21  1  0  0  0  0
 23 74  1  0  0  0  0
 23 22  1  0  0  0  0
 23 24  1  0  0  0  0
 24 55  1  0  0  0  0
 25 24  1  0  0  0  0
 25 76  1  0  0  0  0
 25 26  1  0  0  0  0
 26 28  1  0  0  0  0
 27 58  1  1  0  0  0
 27 29  1  0  0  0  0
 28  8  1  0  0  0  0
 28 13  2  0  0  0  0
 29 59  1  0  0  0  0
 30 29  1  0  0  0  0
 30 31  2  0  0  0  0
 31 60  1  0  0  0  0
 32 31  1  0  0  0  0
 32 61  1  0  0  0  0
 33 32  2  0  0  0  0
 34 35  2  0  0  0  0
 34 33  1  0  0  0  0
 35 30  1  0  0  0  0
 36 35  1  0  0  0  0
 40  4  1  0  0  0  0
 42  8  1  0  0  0  0
 46 14  1  0  0  0  0
 47 16  1  0  0  0  0
 48 17  1  0  0  0  0
 49 18  1  0  0  0  0
 52 21  1  0  0  0  0
 54 23  1  0  0  0  0
 56 25  1  0  0  0  0
 57 26  1  0  0  0  0
 62 33  1  0  0  0  0
 63 34  1  0  0  0  0
 64 29  1  0  0  0  0
 70 19  1  0  0  0  0
 71 20  1  0  0  0  0
 73 22  1  0  0  0  0
 75 24  1  0  0  0  0
 77 26  1  0  0  0  0
 78 14  1  0  0  0  0
M  END
>  <IC50_NM>
496

>  <number_of_rotatable_bonds>
3

>  <charge>
0

>  <lm5_entropy_jk>
23.111899726860837

$$$$
