4EI4
 OpenBabel11252210453D

 38 41  0  0  1  0  0  0  0  0999 V2000
  -11.4260   29.3120    0.9610 C   0  0  0  0  0  0  0  0  0  0  0  0
  -12.5360   28.3660    0.7180 C   0  0  0  0  0  0  0  0  0  0  0  0
  -12.4440   27.1020    1.1330 N   0  0  0  0  0  0  0  0  0  0  0  0
  -13.6120   26.5740    0.7250 C   0  0  0  0  0  0  0  0  0  0  0  0
  -14.0140   25.2400    0.8870 C   0  0  0  0  0  0  0  0  0  0  0  0
  -15.2090   24.7980    0.4210 N   0  0  0  0  0  0  0  0  0  0  0  0
  -16.0090   25.6970   -0.1950 C   0  0  0  0  0  0  0  0  0  0  0  0
  -15.6730   27.0300   -0.3810 C   0  0  0  0  0  0  0  0  0  0  0  0
  -14.4150   27.4740    0.0930 C   0  0  0  0  0  0  0  0  0  0  0  0
  -13.7270   28.6780    0.0350 N   0  0  0  0  0  0  0  0  0  0  0  0
  -14.0540   29.9940   -0.5570 C   0  0  2  0  0  0  0  0  0  0  0  0
  -15.2110   30.7010    0.1640 C   0  0  0  0  0  0  0  0  0  0  0  0
  -15.4430   32.1320   -0.3970 C   0  0  0  0  0  0  0  0  0  0  0  0
  -15.6780   32.0510   -1.9310 C   0  0  0  0  0  0  0  0  0  0  0  0
  -14.5250   31.3670   -2.6880 C   0  0  2  0  0  0  0  0  0  0  0  0
  -14.2430   29.9760   -2.0920 C   0  0  0  0  0  0  0  0  0  0  0  0
  -13.3550   32.1570   -2.5540 O   0  0  0  0  0  0  0  0  0  0  0  0
  -16.7740   27.6590   -1.0820 C   0  0  0  0  0  0  0  0  0  0  0  0
  -17.7290   26.6730   -1.3080 C   0  0  0  0  0  0  0  0  0  0  0  0
  -17.2470   25.4730   -0.7470 N   0  0  0  0  0  0  0  0  0  0  0  0
  -13.3690   24.5220    1.3940 H   0  0  0  0  0  0  0  0  0  0  0  0
  -13.1800   30.6400   -0.3870 H   0  0  0  0  0  0  0  0  0  0  0  0
  -16.1160   30.0910    0.0790 H   0  0  0  0  0  0  0  0  0  0  0  0
  -14.9830   30.7370    1.2380 H   0  0  0  0  0  0  0  0  0  0  0  0
  -16.2950   32.6240    0.0990 H   0  0  0  0  0  0  0  0  0  0  0  0
  -14.5710   32.7700   -0.1920 H   0  0  0  0  0  0  0  0  0  0  0  0
  -15.8550   33.0530   -2.3480 H   0  0  0  0  0  0  0  0  0  0  0  0
  -16.6070   31.4930   -2.1260 H   0  0  0  0  0  0  0  0  0  0  0  0
  -14.8000   31.2720   -3.7530 H   0  0  0  0  0  0  0  0  0  0  0  0
  -13.3540   29.5400   -2.5580 H   0  0  0  0  0  0  0  0  0  0  0  0
  -15.0640   29.3020   -2.3470 H   0  0  0  0  0  0  0  0  0  0  0  0
  -16.8910   28.6870   -1.4020 H   0  0  0  0  0  0  0  0  0  0  0  0
  -18.6900   26.7320   -1.8130 H   0  0  0  0  0  0  0  0  0  0  0  0
  -17.7310   24.5780   -0.7050 H   0  0  0  0  0  0  0  0  0  0  0  0
  -10.7440   28.9080    1.7170 H   0  0  0  0  0  0  0  0  0  0  0  0
  -11.7920   30.2680    1.3400 H   0  0  0  0  0  0  0  0  0  0  0  0
  -10.8500   29.4810    0.0500 H   0  0  0  0  0  0  0  0  0  0  0  0
  -12.7730   31.8860   -3.2990 H   0  0  0  0  0  0  0  0  0  0  0  0
  1  2  1  0  0  0  0
  2 10  1  0  0  0  0
  2  3  2  0  0  0  0
  4  5  2  0  0  0  0
  4  9  1  0  0  0  0
  4  3  1  0  0  0  0
  5  6  1  0  0  0  0
  7  8  1  0  0  0  0
  7 20  1  0  0  0  0
  7  6  2  0  0  0  0
  8  9  2  0  0  0  0
  9 10  1  0  0  0  0
 11 12  1  0  0  0  0
 11 16  1  0  0  0  0
 11 10  1  0  0  0  0
 11 22  1  1  0  0  0
 12 13  1  0  0  0  0
 13 14  1  0  0  0  0
 14 15  1  0  0  0  0
 15 16  1  0  0  0  0
 15 17  1  0  0  0  0
 15 29  1  6  0  0  0
 18 19  2  0  0  0  0
 18  8  1  0  0  0  0
 19 20  1  0  0  0  0
 21  5  1  0  0  0  0
 23 12  1  0  0  0  0
 24 12  1  0  0  0  0
 25 13  1  0  0  0  0
 26 13  1  0  0  0  0
 27 14  1  0  0  0  0
 28 14  1  0  0  0  0
 30 16  1  0  0  0  0
 31 16  1  0  0  0  0
 32 18  1  0  0  0  0
 33 19  1  0  0  0  0
 34 20  1  0  0  0  0
 35  1  1  0  0  0  0
 36  1  1  0  0  0  0
 37  1  1  0  0  0  0
 38 17  1  0  0  0  0
M  END
>  <charge>
0

>  <pKi>
8.74

>  <number_of_rotatable_bonds>
1

>  <lm5_entropy_jk>
22.786904138289753

$$$$
