2OXX
 OpenBabel11252210453D

 16 17  0  0  1  0  0  0  0  0999 V2000
   21.9090    8.3010   19.2040 C   0  0  0  0  0  0  0  0  0  0  0  0
   21.4800    8.0780   20.5470 C   0  0  0  0  0  0  0  0  0  0  0  0
   21.9840    6.9860   21.2940 C   0  0  0  0  0  0  0  0  0  0  0  0
   22.8690    7.4410   18.6090 C   0  0  0  0  0  0  0  0  0  0  0  0
   23.5280    4.9860   21.1270 N   0  0  0  0  0  0  0  0  0  0  0  0
   23.3100    6.3540   19.3700 C   0  0  0  0  0  0  0  0  0  0  0  0
   22.8840    6.1380   20.6540 C   0  0  0  0  0  0  0  0  0  0  0  0
   25.3120    3.1340   20.2510 S   0  0  0  0  0  0  0  0  0  0  0  0
   24.3460    4.4860   20.1410 C   0  0  0  0  0  0  0  0  0  0  0  0
   24.2160    5.3270   19.0570 N   0  0  0  0  0  0  0  0  0  0  0  0
   23.5540    7.7450   16.8410 Br  0  0  0  0  0  0  0  0  0  0  0  0
   21.1700    9.7590   18.1790 Br  0  0  0  0  0  0  0  0  0  0  0  0
   20.1980    9.2460   21.3660 Br  0  0  0  0  0  0  0  0  0  0  0  0
   21.4490    6.6420   23.1060 Br  0  0  0  0  0  0  0  0  0  0  0  0
   23.3380    4.5210   22.0040 H   0  0  0  0  0  0  0  0  0  0  0  0
   24.6750    5.1850   18.1680 H   0  0  0  0  0  0  0  0  0  0  0  0
  1  2  2  0  0  0  0
  1  4  1  0  0  0  0
  1 12  1  0  0  0  0
  2  3  1  0  0  0  0
  2 13  1  0  0  0  0
  3  7  2  0  0  0  0
  3 14  1  0  0  0  0
  4  6  2  0  0  0  0
  4 11  1  0  0  0  0
  5  7  1  0  0  0  0
  5  9  1  0  0  0  0
  5 15  1  0  0  0  0
  6  7  1  0  0  0  0
  6 10  1  0  0  0  0
  8  9  2  0  0  0  0
  9 10  1  0  0  0  0
 10 16  1  0  0  0  0
M  END
>  <charge>
0

>  <Ki_NM>
200

>  <number_of_rotatable_bonds>
0

>  <lm5_entropy_jk>
7.2278

$$$$
