3RTS
 OpenBabel11252210453D

 31 31  0  0  0  0  0  0  0  0999 V2000
    2.6780   23.8370    5.2330 C   0  0  0  0  0  0  0  0  0  0  0  0
    8.5940   23.7580    1.4010 N   0  0  0  0  0  0  0  0  0  0  0  0
    7.2020   27.7180    4.6420 O   0  0  0  0  0  0  0  0  0  0  0  0
    7.7910   26.5410    4.0080 S   0  0  0  0  0  0  0  0  0  0  0  0
    2.6560   22.6140    5.9090 C   0  0  0  0  0  0  0  0  0  0  0  0
    7.6190   26.8010    2.3070 N   0  0  0  0  0  0  0  0  0  0  0  0
    9.1870   26.2850    4.3430 O   0  0  0  0  0  0  0  0  0  0  0  0
    3.8670   24.5620    5.1270 C   0  0  0  0  0  0  0  0  0  0  0  0
    6.9510   24.7350    0.1530 O   0  0  0  0  0  0  0  0  0  0  0  0
    3.8310   22.1230    6.4860 C   0  0  0  0  0  0  0  0  0  0  0  0
    8.2000   22.5840    0.7230 O   0  0  0  0  0  0  0  0  0  0  0  0
    5.0230   22.8450    6.3800 C   0  0  0  0  0  0  0  0  0  0  0  0
    5.0520   24.0720    5.6990 C   0  0  0  0  0  0  0  0  0  0  0  0
    6.3290   24.8840    5.6380 C   0  0  0  0  0  0  0  0  0  0  0  0
    6.8190   25.1050    4.2030 C   0  0  0  0  0  0  0  0  0  0  0  0
    8.5690   26.2100    1.3500 C   0  0  0  0  0  0  0  0  0  0  0  0
    7.9500   24.9010    0.8330 C   0  0  0  0  0  0  0  0  0  0  0  0
    1.7610   24.2260    4.7830 H   0  0  0  0  0  0  0  0  0  0  0  0
    9.6300   23.7330    1.5350 H   0  0  0  0  0  0  0  0  0  0  0  0
    1.7270   22.0440    5.9770 H   0  0  0  0  0  0  0  0  0  0  0  0
    7.2600   27.7180    1.9880 H   0  0  0  0  0  0  0  0  0  0  0  0
    3.8590   25.5130    4.5930 H   0  0  0  0  0  0  0  0  0  0  0  0
    3.8100   21.1720    7.0200 H   0  0  0  0  0  0  0  0  0  0  0  0
    8.4220   21.8260    1.4690 H   0  0  0  0  0  0  0  0  0  0  0  0
    5.9290   22.4550    6.8470 H   0  0  0  0  0  0  0  0  0  0  0  0
    6.1180   25.8690    6.1250 H   0  0  0  0  0  0  0  0  0  0  0  0
    7.1330   24.3600    6.2180 H   0  0  0  0  0  0  0  0  0  0  0  0
    7.3970   24.1890    3.8770 H   0  0  0  0  0  0  0  0  0  0  0  0
    5.9220   25.1640    3.5250 H   0  0  0  0  0  0  0  0  0  0  0  0
    8.7480   26.8920    0.4670 H   0  0  0  0  0  0  0  0  0  0  0  0
    9.5790   26.0190    1.8170 H   0  0  0  0  0  0  0  0  0  0  0  0
  1  5  2  0  0  0  0
  1  8  1  0  0  0  0
  1 18  1  0  0  0  0
  2 11  1  0  0  0  0
  2 17  1  0  0  0  0
  2 19  1  0  0  0  0
  3  4  2  0  0  0  0
  4  6  1  0  0  0  0
  4  7  2  0  0  0  0
  4 15  1  0  0  0  0
  5 10  1  0  0  0  0
  5 20  1  0  0  0  0
  6 16  1  0  0  0  0
  6 21  1  0  0  0  0
  8 13  2  0  0  0  0
  8 22  1  0  0  0  0
  9 17  2  0  0  0  0
 10 12  2  0  0  0  0
 10 23  1  0  0  0  0
 11 24  1  0  0  0  0
 12 13  1  0  0  0  0
 12 25  1  0  0  0  0
 13 14  1  0  0  0  0
 14 15  1  0  0  0  0
 14 26  1  0  0  0  0
 14 27  1  0  0  0  0
 15 28  1  0  0  0  0
 15 29  1  0  0  0  0
 16 17  1  0  0  0  0
 16 30  1  0  0  0  0
 16 31  1  0  0  0  0
M  END
>  <lm5_entropy_jk>
23.08244794499805

>  <number_of_rotatable_bonds>
7

>  <deltaG_kcalmol>
-10.43

>  <charge>
0

$$$$
