3KXG
 OpenBabel11252210453D

 15 16  0  0  1  0  0  0  0  0999 V2000
   21.4360    8.3830   20.0260 C   0  0  0  0  0  0  0  0  0  0  0  0
   22.1520    7.2340   20.4160 C   0  0  0  0  0  0  0  0  0  0  0  0
   23.0670    6.6360   19.4790 C   0  0  0  0  0  0  0  0  0  0  0  0
   23.3200    7.2160   18.2190 C   0  0  0  0  0  0  0  0  0  0  0  0
   22.6040    8.3380   17.8620 C   0  0  0  0  0  0  0  0  0  0  0  0
   21.6420    8.9070   18.7580 C   0  0  0  0  0  0  0  0  0  0  0  0
   23.6150    5.5050   20.0840 N   0  0  0  0  0  0  0  0  0  0  0  0
   23.1110    5.3620   21.3490 N   0  0  0  0  0  0  0  0  0  0  0  0
   22.2530    6.3770   21.5670 C   0  0  0  0  0  0  0  0  0  0  0  0
   20.2220    9.1610   21.2590 Br  0  0  0  0  0  0  0  0  0  0  0  0
   20.6700   10.4320   18.1800 Br  0  0  0  0  0  0  0  0  0  0  0  0
   22.9340    9.1450   16.1790 Br  0  0  0  0  0  0  0  0  0  0  0  0
   24.6670    6.3640   17.2090 Br  0  0  0  0  0  0  0  0  0  0  0  0
   21.4890    6.3470   23.2350 Br  0  0  0  0  0  0  0  0  0  0  0  0
   24.2590    4.8180   19.6730 H   0  0  0  0  0  0  0  0  0  0  0  0
  1  2  2  0  0  0  0
  1  6  1  0  0  0  0
  1 10  1  0  0  0  0
  2  3  1  0  0  0  0
  2  9  1  0  0  0  0
  3  4  2  0  0  0  0
  3  7  1  0  0  0  0
  4  5  1  0  0  0  0
  4 13  1  0  0  0  0
  5  6  2  0  0  0  0
  5 12  1  0  0  0  0
  6 11  1  0  0  0  0
  7  8  1  0  0  0  0
  7 15  1  0  0  0  0
  8  9  2  0  0  0  0
  9 14  1  0  0  0  0
M  END
>  <charge>
0

>  <Ki_NM>
48

>  <number_of_rotatable_bonds>
0

>  <lm5_entropy_jk>
7.2278

$$$$
