3KXH
  Avogadro

 28 29  0  0  0  0  0  0  0  0999 V2000
   22.0320    7.1540   20.4970 C   0  0  0  0  0  0  0  0  0  0  0  0
   22.9530    6.5810   19.6060 C   0  0  0  0  0  0  0  0  0  0  0  0
   23.3550    7.2740   18.3950 C   0  0  0  0  0  0  0  0  0  0  0  0
   22.6810    8.4610   18.0440 C   0  0  0  0  0  0  0  0  0  0  0  0
   21.6660    8.9240   18.8750 C   0  0  0  0  0  0  0  0  0  0  0  0
   21.3810    8.3120   20.1260 C   0  0  0  0  0  0  0  0  0  0  0  0
   23.6380    5.3870   19.7410 N   0  0  0  0  0  0  0  0  0  0  0  0
   24.3910    6.5040   17.8540 N   0  0  0  0  0  0  0  0  0  0  0  0
   24.5010    5.3410   18.6760 C   0  0  0  0  0  0  0  0  0  0  0  0
   25.5130    4.3590   18.4430 N   0  0  0  0  0  0  0  0  0  0  0  0
   25.8210    3.5300   19.6490 C   0  0  0  0  0  0  0  0  0  0  0  0
   25.2530    3.4960   17.2560 C   0  0  0  0  0  0  0  0  0  0  0  0
   25.2940    6.8560   16.7530 C   0  0  0  0  0  0  0  0  0  0  0  0
   24.6060    6.7300   15.3220 C   0  0  0  0  0  0  0  0  0  0  0  0
   23.3770    6.6800   15.3090 O   0  0  0  0  0  0  0  0  0  0  0  0
   25.3770    6.7140   14.3550 O   0  5  0  0  0  0  0  0  0  0  0  0
   23.2010    9.4610   16.5290 Br  0  0  0  0  0  0  0  0  0  0  0  0
   20.6510   10.4550   18.3460 Br  0  0  0  0  0  0  0  0  0  0  0  0
   20.1460    9.1210   21.3400 Br  0  0  0  0  0  0  0  0  0  0  0  0
   21.8840    6.2730   22.1700 Br  0  0  0  0  0  0  0  0  0  0  0  0
   26.7550    2.9510   19.4250 H   0  0  0  0  0  0  0  0  0  0  0  0
   25.0720    4.1440   16.3680 H   0  0  0  0  0  0  0  0  0  0  0  0
   24.4020    2.7820   17.3980 H   0  0  0  0  0  0  0  0  0  0  0  0
   26.1800    2.8890   17.0690 H   0  0  0  0  0  0  0  0  0  0  0  0
   26.1870    6.1820   16.7990 H   0  0  0  0  0  0  0  0  0  0  0  0
   25.0120    2.8000   19.9170 H   0  0  0  0  0  0  0  0  0  0  0  0
   25.6430    7.9120   16.8860 H   0  0  0  0  0  0  0  0  0  0  0  0
   26.0130    4.1950   20.5250 H   0  0  0  0  0  0  0  0  0  0  0  0
  1  2  2  0  0  0  0
  1  6  1  0  0  0  0
  1 20  1  0  0  0  0
  2  3  1  0  0  0  0
  2  7  1  0  0  0  0
  3  4  2  0  0  0  0
  3  8  1  0  0  0  0
  4  5  1  0  0  0  0
  4 17  1  0  0  0  0
  5  6  2  0  0  0  0
  5 18  1  0  0  0  0
  6 19  1  0  0  0  0
  7  9  2  0  0  0  0
  8  9  1  0  0  0  0
  8 13  1  0  0  0  0
  9 10  1  0  0  0  0
 10 11  1  0  0  0  0
 10 12  1  0  0  0  0
 11 26  1  0  0  0  0
 11 28  1  0  0  0  0
 11 21  1  0  0  0  0
 12 22  1  0  0  0  0
 12 23  1  0  0  0  0
 12 24  1  0  0  0  0
 13 14  1  0  0  0  0
 13 25  1  0  0  0  0
 13 27  1  0  0  0  0
 14 15  2  0  0  0  0
 14 16  1  0  0  0  0
M  CHG  1  16  -1
M  END
>  <Ki_NM>
250

>  <charge>
-1

>  <number_of_rotatable_bonds>
3

>  <lm5_entropy_jk>
35.3363699446558

$$$$
