6rd0.pdb
 OpenBabel11252210453D

 40 42  0  0  0  0  0  0  0  0999 V2000
    7.7430   29.1160    4.9850 N   0  0  0  0  0  0  0  0  0  0  0  0
    7.5640   28.1090    3.9100 C   0  0  0  0  0  0  0  0  0  0  0  0
    6.2130   23.7450    5.3640 C   0  0  0  0  0  0  0  0  0  0  0  0
    7.0620   24.2780    4.1930 C   0  0  0  0  0  0  0  0  0  0  0  0
    8.1240   31.1280    6.9480 C   0  0  0  0  0  0  0  0  0  0  0  0
    8.4690   31.3410    5.5740 C   0  0  0  0  0  0  0  0  0  0  0  0
    8.2880   30.3690    4.6330 C   0  0  0  0  0  0  0  0  0  0  0  0
    7.2970   28.8590    6.3010 C   0  0  0  0  0  0  0  0  0  0  0  0
    7.5780   29.9300    7.2940 C   0  0  0  0  0  0  0  0  0  0  0  0
    7.8950   26.6710    4.3810 C   0  0  0  0  0  0  0  0  0  0  0  0
    8.9230   26.3710    4.9620 O   0  0  0  0  0  0  0  0  0  0  0  0
    6.9600   25.7380    3.9440 N   0  0  0  0  0  0  0  0  0  0  0  0
    6.6640   27.8490    6.5840 O   0  0  0  0  0  0  0  0  0  0  0  0
    7.2180   29.6780    8.5890 O   0  0  0  0  0  0  0  0  0  0  0  0
    4.7390   23.8970    5.2530 C   0  0  0  0  0  0  0  0  0  0  0  0
    3.8020   23.3600    6.2240 C   0  0  0  0  0  0  0  0  0  0  0  0
    2.4900   23.8060    5.8420 C   0  0  0  0  0  0  0  0  0  0  0  0
    3.9960   24.5820    4.3090 C   0  0  0  0  0  0  0  0  0  0  0  0
    2.6280   24.5650    4.6760 N   0  0  0  0  0  0  0  0  0  0  0  0
    3.9350   22.5710    7.3800 C   0  0  0  0  0  0  0  0  0  0  0  0
    2.8220   22.3550    8.1740 C   0  0  0  0  0  0  0  0  0  0  0  0
    1.5390   22.8330    7.8000 C   0  0  0  0  0  0  0  0  0  0  0  0
    1.3480   23.5420    6.6280 C   0  0  0  0  0  0  0  0  0  0  0  0
    6.5160   28.2010    3.5020 H   0  0  0  0  0  0  0  0  0  0  0  0
    8.2550   28.3420    3.0440 H   0  0  0  0  0  0  0  0  0  0  0  0
    6.5490   24.2370    6.3120 H   0  0  0  0  0  0  0  0  0  0  0  0
    6.4330   22.6470    5.4310 H   0  0  0  0  0  0  0  0  0  0  0  0
    8.1380   24.0140    4.3870 H   0  0  0  0  0  0  0  0  0  0  0  0
    6.7450   23.7600    3.2460 H   0  0  0  0  0  0  0  0  0  0  0  0
    8.3000   31.9320    7.6680 H   0  0  0  0  0  0  0  0  0  0  0  0
    8.8760   32.3140    5.2790 H   0  0  0  0  0  0  0  0  0  0  0  0
    8.5270   30.5390    3.5750 H   0  0  0  0  0  0  0  0  0  0  0  0
    6.0680   26.0580    3.5570 H   0  0  0  0  0  0  0  0  0  0  0  0
    6.8130   28.7560    8.6640 H   0  0  0  0  0  0  0  0  0  0  0  0
    4.2860   25.0850    3.4050 H   0  0  0  0  0  0  0  0  0  0  0  0
    1.8890   24.8640    4.0410 H   0  0  0  0  0  0  0  0  0  0  0  0
    4.9020   22.1350    7.6370 H   0  0  0  0  0  0  0  0  0  0  0  0
    2.9190   21.8090    9.1130 H   0  0  0  0  0  0  0  0  0  0  0  0
    0.6850   22.6190    8.4510 H   0  0  0  0  0  0  0  0  0  0  0  0
    0.3640   23.8880    6.3130 H   0  0  0  0  0  0  0  0  0  0  0  0
  1  2  1  0  0  0  0
  1  7  1  0  0  0  0
  1  8  1  0  0  0  0
  2 10  1  0  0  0  0
  2 24  1  0  0  0  0
  2 25  1  0  0  0  0
  3  4  1  0  0  0  0
  3 15  1  0  0  0  0
  3 26  1  0  0  0  0
  3 27  1  0  0  0  0
  4 12  1  0  0  0  0
  4 28  1  0  0  0  0
  4 29  1  0  0  0  0
  5  6  1  0  0  0  0
  5  9  2  0  0  0  0
  5 30  1  0  0  0  0
  6  7  2  0  0  0  0
  6 31  1  0  0  0  0
  7 32  1  0  0  0  0
  8 13  2  0  0  0  0
  8  9  1  0  0  0  0
  9 14  1  0  0  0  0
 10 12  1  0  0  0  0
 10 11  2  0  0  0  0
 12 33  1  0  0  0  0
 14 34  1  0  0  0  0
 15 18  2  0  0  0  0
 15 16  1  0  0  0  0
 16 17  2  0  0  0  0
 16 20  1  0  0  0  0
 17 19  1  0  0  0  0
 17 23  1  0  0  0  0
 18 19  1  0  0  0  0
 18 35  1  0  0  0  0
 19 36  1  0  0  0  0
 20 21  2  0  0  0  0
 20 37  1  0  0  0  0
 21 22  1  0  0  0  0
 21 38  1  0  0  0  0
 22 23  2  0  0  0  0
 22 39  1  0  0  0  0
 23 40  1  0  0  0  0
M  END
>  <COMPND>
6rd0.pdb

>  <AUTHOR>
GENERATED BY OPEN BABEL 2.3.1

>  <MASTER>
0    0    0    0    0    0    0    0   40    0   40    0

>  <lm5_entropy_jk>
24.137609081580525

>  <number_of_rotatable_bonds>
6

>  <deltaG_kcalmol>
-6.49

>  <charge>
0

$$$$
