3F19
 OpenBabel11252210453D

 25 25  0  0  0  0  0  0  0  0999 V2000
    5.6530   25.7410    4.8380 C   0  0  0  0  0  0  0  0  0  0  0  0
    7.6110   26.9010    2.3880 N   0  0  0  0  0  0  0  0  0  0  0  0
    8.5700   22.5900    0.3270 O   0  0  0  0  0  0  0  0  0  0  0  0
    8.0100   26.8340    3.9850 S   0  0  0  0  0  0  0  0  0  0  0  0
    4.8510   24.6470    5.1810 C   0  0  0  0  0  0  0  0  0  0  0  0
    8.8970   23.9060    0.8320 N   0  0  0  0  0  0  0  0  0  0  0  0
    6.8670   24.7560    0.2610 O   0  0  0  0  0  0  0  0  0  0  0  0
    6.9520   25.4900    4.3590 C   0  0  0  0  0  0  0  0  0  0  0  0
    9.3920   26.3380    4.0430 O   0  0  0  0  0  0  0  0  0  0  0  0
    5.3260   23.3460    5.0450 C   0  0  0  0  0  0  0  0  0  0  0  0
    7.5400   28.0790    4.5890 O   0  0  0  0  0  0  0  0  0  0  0  0
    7.4410   24.1770    4.2040 C   0  0  0  0  0  0  0  0  0  0  0  0
    8.4720   26.3020    1.2460 C   0  0  0  0  0  0  0  0  0  0  0  0
    6.6030   23.1120    4.5390 C   0  0  0  0  0  0  0  0  0  0  0  0
    7.9910   24.9350    0.7310 C   0  0  0  0  0  0  0  0  0  0  0  0
    4.5520   22.3110    5.4210 F   0  0  0  0  0  0  0  0  0  0  0  0
    5.2550   26.7540    4.9600 H   0  0  0  0  0  0  0  0  0  0  0  0
    6.8920   26.2430    2.6960 H   0  0  0  0  0  0  0  0  0  0  0  0
    8.6020   21.9850    1.1280 H   0  0  0  0  0  0  0  0  0  0  0  0
    3.8420   24.7970    5.5540 H   0  0  0  0  0  0  0  0  0  0  0  0
    9.8520   24.0320    1.1800 H   0  0  0  0  0  0  0  0  0  0  0  0
    8.4510   23.9650    3.8340 H   0  0  0  0  0  0  0  0  0  0  0  0
    8.4760   26.9560    0.3570 H   0  0  0  0  0  0  0  0  0  0  0  0
    9.5370   26.2120    1.5260 H   0  0  0  0  0  0  0  0  0  0  0  0
    6.9440   22.0890    4.4030 H   0  0  0  0  0  0  0  0  0  0  0  0
  1  8  2  0  0  0  0
  1  5  1  0  0  0  0
  1 17  1  0  0  0  0
  2 13  1  0  0  0  0
  2  4  1  0  0  0  0
  2 18  1  0  0  0  0
  3  6  1  0  0  0  0
  3 19  1  0  0  0  0
  4  9  2  0  0  0  0
  4  8  1  0  0  0  0
  4 11  2  0  0  0  0
  5 10  2  0  0  0  0
  5 20  1  0  0  0  0
  6 15  1  0  0  0  0
  6 21  1  0  0  0  0
  7 15  2  0  0  0  0
  8 12  1  0  0  0  0
 10 14  1  0  0  0  0
 10 16  1  0  0  0  0
 12 14  2  0  0  0  0
 12 22  1  0  0  0  0
 13 15  1  0  0  0  0
 13 23  1  0  0  0  0
 13 24  1  0  0  0  0
 14 25  1  0  0  0  0
M  END
>  <COMPND>
3f19.pdb

>  <AUTHOR>
GENERATED BY OPEN BABEL 2.3.1

>  <MASTER>
0    0    0    0    0    0    0    0   25    0   25    0

>  <lm5_entropy_jk>
20.21647283461167

>  <number_of_rotatable_bonds>
5

>  <deltaG_kcalmol>
-9.81

>  <charge>
0

$$$$
