5NY3
 OpenBabel11252210453D

 38 39  0  0  0  0  0  0  0  0999 V2000
   -3.6080    6.5690   12.7300 C   0  0  0  0  0  0  0  0  0  0  0  0
   -5.1980    3.6560   15.4780 C   0  0  0  0  0  0  0  0  0  0  0  0
   -5.6680    1.2340   16.0390 N   0  5  0  0  0  0  0  0  0  0  0  0
   -4.7680    2.6860   17.7840 O   0  0  0  0  0  0  0  0  0  0  0  0
   -3.9920    3.3960   14.8020 C   0  0  0  0  0  0  0  0  0  0  0  0
   -7.1260    2.9950   17.0420 O   0  0  0  0  0  0  0  0  0  0  0  0
   -3.5140    4.3300   13.8730 C   0  0  0  0  0  0  0  0  0  0  0  0
   -4.1970    5.5240   13.6440 C   0  0  0  0  0  0  0  0  0  0  0  0
   -5.3860    5.7820   14.3270 C   0  0  0  0  0  0  0  0  0  0  0  0
   -5.8970    4.8560   15.2450 C   0  0  0  0  0  0  0  0  0  0  0  0
   -2.5350    7.4100   13.4600 C   0  0  0  0  0  0  0  0  0  0  0  0
   -2.2100    8.6030   12.6560 N   0  0  0  0  0  0  0  0  0  0  0  0
   -1.7270    9.7640   13.1920 C   0  0  0  0  0  0  0  0  0  0  0  0
   -1.7180   10.7900   12.3020 N   0  0  0  0  0  0  0  0  0  0  0  0
   -1.3850    9.8620   14.3520 O   0  0  0  0  0  0  0  0  0  0  0  0
   -2.0240   14.4730   12.0090 C   0  0  0  0  0  0  0  0  0  0  0  0
   -2.2040   13.0930   11.7940 C   0  0  0  0  0  0  0  0  0  0  0  0
   -1.4870   12.1540   12.5450 C   0  0  0  0  0  0  0  0  0  0  0  0
   -1.1070   14.9080   12.9780 C   0  0  0  0  0  0  0  0  0  0  0  0
   -0.5570   12.5980   13.4970 C   0  0  0  0  0  0  0  0  0  0  0  0
   -0.3670   13.9760   13.7210 C   0  0  0  0  0  0  0  0  0  0  0  0
   -0.8810   16.6200   13.2580 Cl  0  0  0  0  0  0  0  0  0  0  0  0
   -5.7700    2.5970   16.7590 S   0  0  0  0  0  0  0  0  0  0  0  0
   -2.4430    8.6180   11.6720 H   0  0  0  0  0  0  0  0  0  0  0  0
   -3.1800    6.0880   11.8400 H   0  0  0  0  0  0  0  0  0  0  0  0
   -4.4100    7.2200   12.3580 H   0  0  0  0  0  0  0  0  0  0  0  0
   -5.8980    6.7290   14.1770 H   0  0  0  0  0  0  0  0  0  0  0  0
   -6.8020    5.1030   15.8080 H   0  0  0  0  0  0  0  0  0  0  0  0
   -2.0410   10.5640   11.3750 H   0  0  0  0  0  0  0  0  0  0  0  0
   -2.5920   15.2030   11.4290 H   0  0  0  0  0  0  0  0  0  0  0  0
   -2.9190   12.7520   11.0470 H   0  0  0  0  0  0  0  0  0  0  0  0
   -4.8560    1.1260   16.7050 H   0  0  0  0  0  0  0  0  0  0  0  0
    0.0230   11.8750   14.0670 H   0  0  0  0  0  0  0  0  0  0  0  0
    0.3500   14.3230   14.4660 H   0  0  0  0  0  0  0  0  0  0  0  0
   -3.4120    2.4940   15.0040 H   0  0  0  0  0  0  0  0  0  0  0  0
   -2.5810    4.1430   13.3490 H   0  0  0  0  0  0  0  0  0  0  0  0
   -2.9110    7.7240   14.4500 H   0  0  0  0  0  0  0  0  0  0  0  0
   -1.6250    6.8130   13.6470 H   0  0  0  0  0  0  0  0  0  0  0  0
  1  8  1  0  0  0  0
  1 11  1  0  0  0  0
  2  5  2  0  0  0  0
  2 10  1  0  0  0  0
  2 23  1  0  0  0  0
  3 23  1  0  0  0  0
  4 23  2  0  0  0  0
  5  7  1  0  0  0  0
  6 23  2  0  0  0  0
  7  8  2  0  0  0  0
  8  9  1  0  0  0  0
  9 10  2  0  0  0  0
 11 12  1  0  0  0  0
 12 13  1  0  0  0  0
 13 14  1  0  0  0  0
 13 15  2  0  0  0  0
 14 18  1  0  0  0  0
 16 17  2  0  0  0  0
 16 19  1  0  0  0  0
 17 18  1  0  0  0  0
 18 20  2  0  0  0  0
 19 21  2  0  0  0  0
 20 21  1  0  0  0  0
 22 19  1  0  0  0  0
 24 12  1  0  0  0  0
 25  1  1  0  0  0  0
 26  1  1  0  0  0  0
 27  9  1  0  0  0  0
 28 10  1  0  0  0  0
 29 14  1  0  0  0  0
 30 16  1  0  0  0  0
 31 17  1  0  0  0  0
 32  3  1  0  0  0  0
 33 20  1  0  0  0  0
 34 21  1  0  0  0  0
 35  5  1  0  0  0  0
 36  7  1  0  0  0  0
 37 11  1  0  0  0  0
 38 11  1  0  0  0  0
M  CHG  1   3  -1
M  END
>  <deltaG_kcalmol>
-10.2

>  <number_of_rotatable_bonds>
7

>  <charge>
-1

>  <lm5_entropy_jk>
27.943820470677032

$$$$
