6QCB
 OpenBabel11252210453D

 80 81  0  0  1  0  0  0  0  0999 V2000
    8.1890   18.4650    8.9110 N   0  0  0  0  0  0  0  0  0  0  0  0
   11.1130   17.9560    7.6030 C   0  0  1  0  0  0  0  0  0  0  0  0
   12.0030   18.7790    6.8580 O   0  0  0  0  0  0  0  0  0  0  0  0
    9.7140   18.2550    7.0290 C   0  0  0  0  0  0  0  0  0  0  0  0
    4.6630   17.5290    9.5620 N   0  0  0  0  0  0  0  0  0  0  0  0
    5.4780   19.4340    8.6150 O   0  0  0  0  0  0  0  0  0  0  0  0
    8.6180   17.6900    7.8640 C   0  0  0  0  0  0  0  0  0  0  0  0
   11.6970   16.0270    6.0780 N   0  0  0  0  0  0  0  0  0  0  0  0
    8.1480   16.6010    7.6300 O   0  0  0  0  0  0  0  0  0  0  0  0
    7.0710   18.0250    9.8160 C   0  0  1  0  0  0  0  0  0  0  0  0
   10.2740   14.2380    6.0590 O   0  0  0  0  0  0  0  0  0  0  0  0
    7.3290   18.4500   11.2880 C   0  0  0  0  0  0  0  0  0  0  0  0
    6.4150   17.7320   12.2860 C   0  0  0  0  0  0  0  0  0  0  0  0
    7.1360   19.9590   11.4860 C   0  0  0  0  0  0  0  0  0  0  0  0
    5.6770   18.4230    9.2700 C   0  0  0  0  0  0  0  0  0  0  0  0
    3.3860   17.4620    8.8250 C   0  0  0  0  0  0  0  0  0  0  0  0
    3.4020   16.2600    7.8460 C   0  0  0  0  0  0  0  0  0  0  0  0
    4.4300   16.4300    6.6930 C   0  0  0  0  0  0  0  0  0  0  0  0
    3.9100   17.3710    5.5760 C   0  0  0  0  0  0  0  0  0  0  0  0
    5.0390   17.8860    4.6450 C   0  0  0  0  0  0  0  0  0  0  0  0
    5.9730   16.7620    4.1410 C   0  0  0  0  0  0  0  0  0  0  0  0
    6.8420   17.2370    2.9560 C   0  0  0  0  0  0  0  0  0  0  0  0
    7.8410   16.1470    2.5060 C   0  0  0  0  0  0  0  0  0  0  0  0
    9.0990   16.1240    3.3970 C   0  0  0  0  0  0  0  0  0  0  0  0
    9.9600   14.8720    3.1230 C   0  0  0  0  0  0  0  0  0  0  0  0
   11.2610   14.9090    3.9800 C   0  0  0  0  0  0  0  0  0  0  0  0
   11.5420   16.4400    7.4790 C   0  0  1  0  0  0  0  0  0  0  0  0
   11.0230   14.9980    5.4730 C   0  0  0  0  0  0  0  0  0  0  0  0
   12.8770   16.1670    8.2310 C   0  0  0  0  0  0  0  0  0  0  0  0
   13.4400   14.7620    8.0580 C   0  0  0  0  0  0  0  0  0  0  0  0
   12.6790   13.6420    8.4160 C   0  0  0  0  0  0  0  0  0  0  0  0
   13.1950   12.3430    8.2730 C   0  0  0  0  0  0  0  0  0  0  0  0
   14.4910   12.1620    7.7670 C   0  0  0  0  0  0  0  0  0  0  0  0
   15.2720   13.2790    7.4200 C   0  0  0  0  0  0  0  0  0  0  0  0
   14.7440   14.5750    7.5690 C   0  0  0  0  0  0  0  0  0  0  0  0
   15.3460   15.4360    7.2940 H   0  0  0  0  0  0  0  0  0  0  0  0
    8.5740   19.4030    8.9930 H   0  0  0  0  0  0  0  0  0  0  0  0
   11.1440   18.2390    8.6710 H   0  0  0  0  0  0  0  0  0  0  0  0
   12.6750   19.1310    7.4980 H   0  0  0  0  0  0  0  0  0  0  0  0
    9.6070   17.8120    6.0370 H   0  0  0  0  0  0  0  0  0  0  0  0
    4.9520   16.6990   10.0760 H   0  0  0  0  0  0  0  0  0  0  0  0
   12.3510   16.5420    5.5040 H   0  0  0  0  0  0  0  0  0  0  0  0
    7.0340   16.9320    9.8040 H   0  0  0  0  0  0  0  0  0  0  0  0
    8.3680   18.1680   11.5240 H   0  0  0  0  0  0  0  0  0  0  0  0
    6.6830   17.9850   13.3210 H   0  0  0  0  0  0  0  0  0  0  0  0
    7.7210   20.5290   10.7560 H   0  0  0  0  0  0  0  0  0  0  0  0
    3.2150   18.4010    8.2740 H   0  0  0  0  0  0  0  0  0  0  0  0
    2.3970   16.1040    7.4290 H   0  0  0  0  0  0  0  0  0  0  0  0
    4.6560   15.4490    6.2570 H   0  0  0  0  0  0  0  0  0  0  0  0
    3.4060   18.2410    6.0190 H   0  0  0  0  0  0  0  0  0  0  0  0
    5.6360   18.6370    5.1820 H   0  0  0  0  0  0  0  0  0  0  0  0
    5.3820   15.8900    3.8360 H   0  0  0  0  0  0  0  0  0  0  0  0
    7.3740   18.1640    3.2120 H   0  0  0  0  0  0  0  0  0  0  0  0
    8.1340   16.3220    1.4620 H   0  0  0  0  0  0  0  0  0  0  0  0
    8.8020   16.1390    4.4550 H   0  0  0  0  0  0  0  0  0  0  0  0
   10.2070   14.8080    2.0520 H   0  0  0  0  0  0  0  0  0  0  0  0
   11.8930   15.7480    3.6810 H   0  0  0  0  0  0  0  0  0  0  0  0
   10.7460   15.8280    7.9320 H   0  0  0  0  0  0  0  0  0  0  0  0
   12.7310   16.3630    9.2990 H   0  0  0  0  0  0  0  0  0  0  0  0
   11.6760   13.7840    8.7970 H   0  0  0  0  0  0  0  0  0  0  0  0
   12.5900   11.4820    8.5520 H   0  0  0  0  0  0  0  0  0  0  0  0
   14.8890   11.1550    7.6450 H   0  0  0  0  0  0  0  0  0  0  0  0
   16.2820   13.1410    7.0320 H   0  0  0  0  0  0  0  0  0  0  0  0
   13.6160   16.9020    7.9020 H   0  0  0  0  0  0  0  0  0  0  0  0
    9.5370   19.3250    6.9360 H   0  0  0  0  0  0  0  0  0  0  0  0
    6.4900   16.6430   12.1830 H   0  0  0  0  0  0  0  0  0  0  0  0
    7.4070   20.2820   12.4980 H   0  0  0  0  0  0  0  0  0  0  0  0
    2.5550   17.3560    9.5410 H   0  0  0  0  0  0  0  0  0  0  0  0
    3.6340   15.3450    8.4100 H   0  0  0  0  0  0  0  0  0  0  0  0
    5.3950   16.7950    7.0770 H   0  0  0  0  0  0  0  0  0  0  0  0
    3.1460   16.8510    4.9810 H   0  0  0  0  0  0  0  0  0  0  0  0
    4.5900   18.4130    3.7910 H   0  0  0  0  0  0  0  0  0  0  0  0
    6.6160   16.4300    4.9690 H   0  0  0  0  0  0  0  0  0  0  0  0
    6.1830   17.4810    2.1130 H   0  0  0  0  0  0  0  0  0  0  0  0
    7.3440   15.1680    2.5210 H   0  0  0  0  0  0  0  0  0  0  0  0
    9.6910   17.0350    3.2280 H   0  0  0  0  0  0  0  0  0  0  0  0
    9.3880   13.9640    3.3630 H   0  0  0  0  0  0  0  0  0  0  0  0
   11.8500   13.9990    3.8280 H   0  0  0  0  0  0  0  0  0  0  0  0
    6.0880   20.2440   11.3320 H   0  0  0  0  0  0  0  0  0  0  0  0
    5.3620   18.0110   12.1530 H   0  0  0  0  0  0  0  0  0  0  0  0
  1 37  1  0  0  0  0
  1 10  1  0  0  0  0
  2 38  1  1  0  0  0
  2 27  1  0  0  0  0
  3 39  1  0  0  0  0
  3  2  1  0  0  0  0
  4  2  1  0  0  0  0
  4  7  1  0  0  0  0
  5 41  1  0  0  0  0
  6 15  2  0  0  0  0
  7  1  1  0  0  0  0
  8 27  1  0  0  0  0
  9  7  2  0  0  0  0
 10 43  1  1  0  0  0
 10 12  1  0  0  0  0
 12 44  1  0  0  0  0
 12 13  1  0  0  0  0
 13 66  1  0  0  0  0
 13 45  1  0  0  0  0
 14 12  1  0  0  0  0
 14 67  1  0  0  0  0
 15  5  1  0  0  0  0
 15 10  1  0  0  0  0
 16  5  1  0  0  0  0
 16 68  1  0  0  0  0
 17 69  1  0  0  0  0
 17 16  1  0  0  0  0
 18 70  1  0  0  0  0
 18 17  1  0  0  0  0
 19 50  1  0  0  0  0
 19 18  1  0  0  0  0
 20 51  1  0  0  0  0
 20 19  1  0  0  0  0
 21 20  1  0  0  0  0
 21 73  1  0  0  0  0
 22 53  1  0  0  0  0
 22 21  1  0  0  0  0
 23 22  1  0  0  0  0
 23 24  1  0  0  0  0
 24 55  1  0  0  0  0
 25 77  1  0  0  0  0
 25 24  1  0  0  0  0
 25 26  1  0  0  0  0
 26 28  1  0  0  0  0
 27 58  1  1  0  0  0
 27 29  1  0  0  0  0
 28  8  1  0  0  0  0
 28 11  2  0  0  0  0
 29 30  1  0  0  0  0
 29 59  1  0  0  0  0
 30 31  2  0  0  0  0
 31 32  1  0  0  0  0
 31 60  1  0  0  0  0
 32 61  1  0  0  0  0
 33 62  1  0  0  0  0
 33 32  2  0  0  0  0
 34 33  1  0  0  0  0
 35 34  2  0  0  0  0
 35 30  1  0  0  0  0
 36 35  1  0  0  0  0
 40  4  1  0  0  0  0
 42  8  1  0  0  0  0
 46 14  1  0  0  0  0
 47 16  1  0  0  0  0
 48 17  1  0  0  0  0
 49 18  1  0  0  0  0
 52 21  1  0  0  0  0
 54 23  1  0  0  0  0
 56 25  1  0  0  0  0
 57 26  1  0  0  0  0
 63 34  1  0  0  0  0
 64 29  1  0  0  0  0
 65  4  1  0  0  0  0
 71 19  1  0  0  0  0
 72 20  1  0  0  0  0
 74 22  1  0  0  0  0
 75 23  1  0  0  0  0
 76 24  1  0  0  0  0
 78 26  1  0  0  0  0
 79 14  1  0  0  0  0
 80 13  1  0  0  0  0
M  END
>  <IC50_NM>
5.8

>  <number_of_rotatable_bonds>
3

>  <charge>
0

>  <lm5_entropy_jk>
30.51387600249522

$$$$
