6QCB
 OpenBabel11252210453D

 80 81  0  0  1  0  0  0  0  0999 V2000
    8.3630   18.3580    8.9730 N   0  0  0  0  0  0  0  0  0  0  0  0
   11.1860   17.9210    7.5830 C   0  0  1  0  0  0  0  0  0  0  0  0
   12.0650   18.7250    6.8030 O   0  0  0  0  0  0  0  0  0  0  0  0
    9.7830   18.2000    7.0160 C   0  0  0  0  0  0  0  0  0  0  0  0
    4.8130   17.4840    9.5590 N   0  0  0  0  0  0  0  0  0  0  0  0
    5.7290   19.2950    8.5250 O   0  0  0  0  0  0  0  0  0  0  0  0
    8.7020   17.6300    7.8620 C   0  0  0  0  0  0  0  0  0  0  0  0
   11.8130   15.9750    6.1130 N   0  0  0  0  0  0  0  0  0  0  0  0
    8.1770   16.5730    7.5950 O   0  0  0  0  0  0  0  0  0  0  0  0
    7.2290   17.9400    9.8610 C   0  0  1  0  0  0  0  0  0  0  0  0
   10.3090   14.2590    6.0350 O   0  0  0  0  0  0  0  0  0  0  0  0
    7.4290   18.4350   11.3190 C   0  0  0  0  0  0  0  0  0  0  0  0
    6.4800   17.7490   12.3040 C   0  0  0  0  0  0  0  0  0  0  0  0
    7.2110   19.9470   11.4540 C   0  0  0  0  0  0  0  0  0  0  0  0
    5.8670   18.3240    9.2470 C   0  0  0  0  0  0  0  0  0  0  0  0
    3.5290   17.4590    8.8320 C   0  0  0  0  0  0  0  0  0  0  0  0
    3.4800   16.2390    7.8780 C   0  0  0  0  0  0  0  0  0  0  0  0
    4.4710   16.3770    6.6910 C   0  0  0  0  0  0  0  0  0  0  0  0
    3.9220   17.3070    5.5790 C   0  0  0  0  0  0  0  0  0  0  0  0
    5.0470   17.9260    4.7110 C   0  0  0  0  0  0  0  0  0  0  0  0
    6.0480   16.8740    4.1850 C   0  0  0  0  0  0  0  0  0  0  0  0
    6.9720   17.4710    3.1010 C   0  0  0  0  0  0  0  0  0  0  0  0
    7.9730   16.4190    2.5810 C   0  0  0  0  0  0  0  0  0  0  0  0
    9.1880   16.2630    3.5100 C   0  0  0  0  0  0  0  0  0  0  0  0
   10.0250   15.0240    3.1270 C   0  0  0  0  0  0  0  0  0  0  0  0
   11.3280   14.9710    3.9780 C   0  0  0  0  0  0  0  0  0  0  0  0
   11.6140   16.4020    7.5010 C   0  0  1  0  0  0  0  0  0  0  0  0
   11.0960   15.0000    5.4740 C   0  0  0  0  0  0  0  0  0  0  0  0
   12.9220   16.1360    8.2950 C   0  0  0  0  0  0  0  0  0  0  0  0
   13.5050   14.7390    8.1320 C   0  0  0  0  0  0  0  0  0  0  0  0
   12.7730   13.6120    8.5290 C   0  0  0  0  0  0  0  0  0  0  0  0
   13.3120   12.3210    8.3970 C   0  0  0  0  0  0  0  0  0  0  0  0
   14.5970   12.1550    7.8560 C   0  0  0  0  0  0  0  0  0  0  0  0
   15.3460   13.2790    7.4660 C   0  0  0  0  0  0  0  0  0  0  0  0
   14.7980   14.5670    7.6100 C   0  0  0  0  0  0  0  0  0  0  0  0
   15.3740   15.4350    7.3040 H   0  0  0  0  0  0  0  0  0  0  0  0
    8.7550   19.2940    9.0530 H   0  0  0  0  0  0  0  0  0  0  0  0
   11.2210   18.2350    8.6410 H   0  0  0  0  0  0  0  0  0  0  0  0
   12.7960   19.0290    7.4040 H   0  0  0  0  0  0  0  0  0  0  0  0
    9.6760   17.7490    6.0280 H   0  0  0  0  0  0  0  0  0  0  0  0
    5.0590   16.6690   10.1170 H   0  0  0  0  0  0  0  0  0  0  0  0
   12.4570   16.5090    5.5480 H   0  0  0  0  0  0  0  0  0  0  0  0
    7.1970   16.8480    9.8890 H   0  0  0  0  0  0  0  0  0  0  0  0
    8.4610   18.1740   11.6040 H   0  0  0  0  0  0  0  0  0  0  0  0
    6.7220   18.0230   13.3390 H   0  0  0  0  0  0  0  0  0  0  0  0
    7.7750   20.4960   10.6920 H   0  0  0  0  0  0  0  0  0  0  0  0
    3.4010   18.3940    8.2640 H   0  0  0  0  0  0  0  0  0  0  0  0
    2.4570   16.1010    7.4980 H   0  0  0  0  0  0  0  0  0  0  0  0
    4.6830   15.3900    6.2610 H   0  0  0  0  0  0  0  0  0  0  0  0
    3.3380   18.1260    6.0200 H   0  0  0  0  0  0  0  0  0  0  0  0
    5.5900   18.6740    5.3070 H   0  0  0  0  0  0  0  0  0  0  0  0
    5.5060   16.0130    3.7740 H   0  0  0  0  0  0  0  0  0  0  0  0
    7.5020   18.3540    3.4820 H   0  0  0  0  0  0  0  0  0  0  0  0
    8.3150   16.7010    1.5760 H   0  0  0  0  0  0  0  0  0  0  0  0
    8.8460   16.1630    4.5500 H   0  0  0  0  0  0  0  0  0  0  0  0
   10.2680   15.0450    2.0550 H   0  0  0  0  0  0  0  0  0  0  0  0
   11.9840   15.8040    3.7180 H   0  0  0  0  0  0  0  0  0  0  0  0
   10.8050   15.7940    7.9360 H   0  0  0  0  0  0  0  0  0  0  0  0
   12.7370   16.3250    9.3580 H   0  0  0  0  0  0  0  0  0  0  0  0
   11.7770   13.7420    8.9360 H   0  0  0  0  0  0  0  0  0  0  0  0
   12.7320   11.4540    8.7100 H   0  0  0  0  0  0  0  0  0  0  0  0
   15.0110   11.1530    7.7410 H   0  0  0  0  0  0  0  0  0  0  0  0
   16.3460   13.1540    7.0490 H   0  0  0  0  0  0  0  0  0  0  0  0
   13.6650   16.8810    7.9970 H   0  0  0  0  0  0  0  0  0  0  0  0
    9.5930   19.2680    6.9210 H   0  0  0  0  0  0  0  0  0  0  0  0
    6.5450   16.6580   12.2150 H   0  0  0  0  0  0  0  0  0  0  0  0
    7.4850   20.3170   12.4490 H   0  0  0  0  0  0  0  0  0  0  0  0
    2.7000   17.4070    9.5560 H   0  0  0  0  0  0  0  0  0  0  0  0
    3.7100   15.3280    8.4470 H   0  0  0  0  0  0  0  0  0  0  0  0
    5.4460   16.7450    7.0450 H   0  0  0  0  0  0  0  0  0  0  0  0
    3.2220   16.7480    4.9430 H   0  0  0  0  0  0  0  0  0  0  0  0
    4.5970   18.4720    3.8710 H   0  0  0  0  0  0  0  0  0  0  0  0
    6.6520   16.4910    5.0190 H   0  0  0  0  0  0  0  0  0  0  0  0
    6.3550   17.8190    2.2630 H   0  0  0  0  0  0  0  0  0  0  0  0
    7.4620   15.4530    2.4750 H   0  0  0  0  0  0  0  0  0  0  0  0
    9.8070   17.1700    3.4680 H   0  0  0  0  0  0  0  0  0  0  0  0
    9.4350   14.1120    3.2990 H   0  0  0  0  0  0  0  0  0  0  0  0
   11.8920   14.0570    3.7800 H   0  0  0  0  0  0  0  0  0  0  0  0
    6.1560   20.2050   11.2960 H   0  0  0  0  0  0  0  0  0  0  0  0
    5.4340   18.0360   12.1340 H   0  0  0  0  0  0  0  0  0  0  0  0
  1 37  1  0  0  0  0
  1 10  1  0  0  0  0
  2 38  1  1  0  0  0
  2 27  1  0  0  0  0
  3 39  1  0  0  0  0
  3  2  1  0  0  0  0
  4  2  1  0  0  0  0
  4  7  1  0  0  0  0
  5 41  1  0  0  0  0
  6 15  2  0  0  0  0
  7  1  1  0  0  0  0
  8 27  1  0  0  0  0
  9  7  2  0  0  0  0
 10 43  1  1  0  0  0
 10 12  1  0  0  0  0
 12 44  1  0  0  0  0
 12 13  1  0  0  0  0
 13 66  1  0  0  0  0
 13 45  1  0  0  0  0
 14 12  1  0  0  0  0
 14 67  1  0  0  0  0
 15  5  1  0  0  0  0
 15 10  1  0  0  0  0
 16  5  1  0  0  0  0
 16 68  1  0  0  0  0
 17 69  1  0  0  0  0
 17 16  1  0  0  0  0
 18 70  1  0  0  0  0
 18 17  1  0  0  0  0
 19 50  1  0  0  0  0
 19 18  1  0  0  0  0
 20 51  1  0  0  0  0
 20 19  1  0  0  0  0
 21 20  1  0  0  0  0
 21 73  1  0  0  0  0
 22 53  1  0  0  0  0
 22 21  1  0  0  0  0
 23 22  1  0  0  0  0
 23 24  1  0  0  0  0
 24 55  1  0  0  0  0
 25 77  1  0  0  0  0
 25 24  1  0  0  0  0
 25 26  1  0  0  0  0
 26 28  1  0  0  0  0
 27 58  1  1  0  0  0
 27 29  1  0  0  0  0
 28  8  1  0  0  0  0
 28 11  2  0  0  0  0
 29 30  1  0  0  0  0
 29 59  1  0  0  0  0
 30 31  2  0  0  0  0
 31 32  1  0  0  0  0
 31 60  1  0  0  0  0
 32 61  1  0  0  0  0
 33 62  1  0  0  0  0
 33 32  2  0  0  0  0
 34 33  1  0  0  0  0
 35 34  2  0  0  0  0
 35 30  1  0  0  0  0
 36 35  1  0  0  0  0
 40  4  1  0  0  0  0
 42  8  1  0  0  0  0
 46 14  1  0  0  0  0
 47 16  1  0  0  0  0
 48 17  1  0  0  0  0
 49 18  1  0  0  0  0
 52 21  1  0  0  0  0
 54 23  1  0  0  0  0
 56 25  1  0  0  0  0
 57 26  1  0  0  0  0
 63 34  1  0  0  0  0
 64 29  1  0  0  0  0
 65  4  1  0  0  0  0
 71 19  1  0  0  0  0
 72 20  1  0  0  0  0
 74 22  1  0  0  0  0
 75 23  1  0  0  0  0
 76 24  1  0  0  0  0
 78 26  1  0  0  0  0
 79 14  1  0  0  0  0
 80 13  1  0  0  0  0
M  END
>  <IC50_NM>
5.8

>  <number_of_rotatable_bonds>
3

>  <charge>
0

>  <lm5_entropy_jk>
30.51387600249522

$$$$
