1K1M
 OpenBabel11252210453D

 66 69  0  0  1  0  0  0  0  0999 V2000
    0.3810   22.2650   16.3860 C   0  0  0  0  0  0  0  0  0  0  0  0
   -0.0830   21.5160   15.3280 C   0  0  0  0  0  0  0  0  0  0  0  0
    0.8370   20.9190   14.4160 C   0  0  0  0  0  0  0  0  0  0  0  0
    2.1910   21.0630   14.5980 C   0  0  0  0  0  0  0  0  0  0  0  0
    4.1080   21.9500   15.9390 C   0  0  0  0  0  0  0  0  0  0  0  0
    4.5630   22.6950   16.9960 C   0  0  0  0  0  0  0  0  0  0  0  0
    3.6430   23.3420   17.8770 C   0  0  0  0  0  0  0  0  0  0  0  0
    2.2920   23.2140   17.6850 C   0  0  0  0  0  0  0  0  0  0  0  0
    1.7850   22.4320   16.5940 C   0  0  0  0  0  0  0  0  0  0  0  0
    2.7020   21.8080   15.7050 C   0  0  0  0  0  0  0  0  0  0  0  0
   -1.7740   21.1950   15.1190 S   0  0  0  0  0  0  0  0  0  0  0  0
   -2.1210   13.8290   14.9510 C   0  0  0  0  0  0  0  0  0  0  0  0
   -1.9130   19.5920   15.7430 N   0  0  0  0  0  0  0  0  0  0  0  0
   -1.7610   19.2470   17.1570 C   0  0  1  0  0  0  0  0  0  0  0  0
   -2.1500   21.0460   13.7120 O   0  0  0  0  0  0  0  0  0  0  0  0
   -2.5990   22.1220   15.8890 O   0  0  0  0  0  0  0  0  0  0  0  0
   -2.7290   18.0900   17.5460 C   0  0  0  0  0  0  0  0  0  0  0  0
   -0.3000   18.8100   17.4750 C   0  0  0  0  0  0  0  0  0  0  0  0
    0.4000   18.2610   16.6320 O   0  0  0  0  0  0  0  0  0  0  0  0
    1.8400   20.5640   20.4850 N   0  0  0  0  0  0  0  0  0  0  0  0
   -1.6820   12.5410   14.8430 N   0  3  0  0  0  0  0  0  0  0  0  0
    2.6530   21.2420   21.4230 C   0  0  0  0  0  0  0  0  0  0  0  0
    3.7750   20.8050   21.6400 O   0  0  0  0  0  0  0  0  0  0  0  0
   -2.7640   14.3290   13.8570 N   0  0  0  0  0  0  0  0  0  0  0  0
    2.0790   22.4220   22.1430 C   0  0  0  0  0  0  0  0  0  0  0  0
   -1.8570   14.6340   16.1620 C   0  0  0  0  0  0  0  0  0  0  0  0
   -1.1980   14.0650   17.2700 C   0  0  0  0  0  0  0  0  0  0  0  0
   -1.0040   14.8130   18.4310 C   0  0  0  0  0  0  0  0  0  0  0  0
   -1.4880   16.1190   18.5210 C   0  0  0  0  0  0  0  0  0  0  0  0
   -2.1590   16.7040   17.4330 C   0  0  0  0  0  0  0  0  0  0  0  0
   -2.3150   15.9630   16.2560 C   0  0  0  0  0  0  0  0  0  0  0  0
   -0.4320   19.7950   19.8340 C   0  0  0  0  0  0  0  0  0  0  0  0
    0.4750   21.0180   20.1220 C   0  0  0  0  0  0  0  0  0  0  0  0
    2.4620   19.6650   19.4730 C   0  0  0  0  0  0  0  0  0  0  0  0
    1.5410   18.4720   19.1430 C   0  0  0  0  0  0  0  0  0  0  0  0
    0.1570   18.9120   18.7930 N   0  0  0  0  0  0  0  0  0  0  0  0
    1.4530   17.7810   20.0220 H   0  0  0  0  0  0  0  0  0  0  0  0
   -0.3010   22.7530   17.0970 H   0  0  0  0  0  0  0  0  0  0  0  0
    0.4610   20.3440   13.5630 H   0  0  0  0  0  0  0  0  0  0  0  0
    2.9020   20.6150   13.8950 H   0  0  0  0  0  0  0  0  0  0  0  0
    4.8070   21.4540   15.2570 H   0  0  0  0  0  0  0  0  0  0  0  0
    5.6370   22.8140   17.1810 H   0  0  0  0  0  0  0  0  0  0  0  0
    4.0340   23.9470   18.7020 H   0  0  0  0  0  0  0  0  0  0  0  0
    1.5820   23.7140   18.3520 H   0  0  0  0  0  0  0  0  0  0  0  0
   -1.7540   18.7810   15.1050 H   0  0  0  0  0  0  0  0  0  0  0  0
   -2.0570   20.1510   17.7650 H   0  0  0  0  0  0  0  0  0  0  0  0
   -3.6430   18.1790   16.8920 H   0  0  0  0  0  0  0  0  0  0  0  0
   -1.1760   12.0480   15.6060 H   0  0  0  0  0  0  0  0  0  0  0  0
   -3.0890   13.6700   13.1040 H   0  0  0  0  0  0  0  0  0  0  0  0
    1.7180   23.2060   21.4240 H   0  0  0  0  0  0  0  0  0  0  0  0
   -0.8460   13.0320   17.2620 H   0  0  0  0  0  0  0  0  0  0  0  0
   -0.4850   14.3640   19.2850 H   0  0  0  0  0  0  0  0  0  0  0  0
   -1.3420   16.6950   19.4420 H   0  0  0  0  0  0  0  0  0  0  0  0
   -2.8060   16.4560   15.4180 H   0  0  0  0  0  0  0  0  0  0  0  0
   -1.4520   20.1640   19.5540 H   0  0  0  0  0  0  0  0  0  0  0  0
    0.5050   21.6830   19.2190 H   0  0  0  0  0  0  0  0  0  0  0  0
    3.4310   19.2660   19.8810 H   0  0  0  0  0  0  0  0  0  0  0  0
    1.9740   17.9070   18.2810 H   0  0  0  0  0  0  0  0  0  0  0  0
   -3.0760   18.2610   18.6000 H   0  0  0  0  0  0  0  0  0  0  0  0
   -2.0750   11.9030   14.1110 H   0  0  0  0  0  0  0  0  0  0  0  0
   -3.1600   15.2890   13.8310 H   0  0  0  0  0  0  0  0  0  0  0  0
    2.8520   22.9050   22.7970 H   0  0  0  0  0  0  0  0  0  0  0  0
   -0.5430   19.1790   20.7690 H   0  0  0  0  0  0  0  0  0  0  0  0
    0.0030   21.5930   20.9660 H   0  0  0  0  0  0  0  0  0  0  0  0
    2.6550   20.2480   18.5330 H   0  0  0  0  0  0  0  0  0  0  0  0
    1.2160   22.1390   22.7980 H   0  0  0  0  0  0  0  0  0  0  0  0
  1  2  2  0  0  0  0
  1  9  1  0  0  0  0
  1 38  1  0  0  0  0
  2  3  1  0  0  0  0
  2 11  1  0  0  0  0
  3  4  2  0  0  0  0
  3 39  1  0  0  0  0
  4 10  1  0  0  0  0
  4 40  1  0  0  0  0
  5  6  2  0  0  0  0
  5 10  1  0  0  0  0
  5 41  1  0  0  0  0
  6  7  1  0  0  0  0
  6 42  1  0  0  0  0
  7  8  2  0  0  0  0
  7 43  1  0  0  0  0
  8  9  1  0  0  0  0
  8 44  1  0  0  0  0
  9 10  2  0  0  0  0
 11 13  1  0  0  0  0
 11 15  2  0  0  0  0
 11 16  2  0  0  0  0
 12 21  2  0  0  0  0
 12 24  1  0  0  0  0
 12 26  1  0  0  0  0
 13 14  1  0  0  0  0
 13 45  1  0  0  0  0
 14 17  1  0  0  0  0
 14 18  1  0  0  0  0
 14 46  1  1  0  0  0
 17 30  1  0  0  0  0
 17 47  1  0  0  0  0
 17 59  1  0  0  0  0
 18 19  2  0  0  0  0
 18 36  1  0  0  0  0
 20 22  1  0  0  0  0
 20 33  1  0  0  0  0
 20 34  1  0  0  0  0
 21 48  1  0  0  0  0
 21 60  1  0  0  0  0
 22 23  2  0  0  0  0
 22 25  1  0  0  0  0
 24 49  1  0  0  0  0
 24 61  1  0  0  0  0
 25 50  1  0  0  0  0
 25 62  1  0  0  0  0
 25 66  1  0  0  0  0
 26 27  2  0  0  0  0
 26 31  1  0  0  0  0
 27 28  1  0  0  0  0
 27 51  1  0  0  0  0
 28 29  2  0  0  0  0
 28 52  1  0  0  0  0
 29 30  1  0  0  0  0
 29 53  1  0  0  0  0
 30 31  2  0  0  0  0
 31 54  1  0  0  0  0
 32 33  1  0  0  0  0
 32 36  1  0  0  0  0
 32 55  1  0  0  0  0
 32 63  1  0  0  0  0
 33 56  1  0  0  0  0
 33 64  1  0  0  0  0
 34 35  1  0  0  0  0
 34 57  1  0  0  0  0
 34 65  1  0  0  0  0
 35 36  1  0  0  0  0
 35 37  1  0  0  0  0
 35 58  1  0  0  0  0
M  CHG  1  21   1
M  END
>  <deltaG_kcalmol>
-10.10

>  <charge>
1

>  <lm5_entropy_jk>
30.960690819094914

>  <number_of_rotatable_bonds>
9

$$$$
