13c_A.pdb
 OpenBabel11252210453D

 87 90  0  0  1  0  0  0  0  0999 V2000
    7.1460   -6.1520   16.9760 N   0  0  0  0  0  0  0  0  0  0  0  0
    7.7990   -5.9410   19.1640 O   0  0  0  0  0  0  0  0  0  0  0  0
    7.1200   -8.1330   18.4210 C   0  0  0  0  0  0  0  0  0  0  0  0
    6.2850   -4.1370   14.6280 O   0  0  0  0  0  0  0  0  0  0  0  0
    7.4010   -6.6670   18.2630 C   0  0  0  0  0  0  0  0  0  0  0  0
    5.5510   -3.4040   16.6490 N   0  0  0  0  0  0  0  0  0  0  0  0
    7.4040    0.7310   12.7940 C   0  0  0  0  0  0  0  0  0  0  0  0
    4.6670    0.4130   13.7170 N   0  0  0  0  0  0  0  0  0  0  0  0
    5.1990    0.7610   16.4680 O   0  0  0  0  0  0  0  0  0  0  0  0
    7.2240    2.0480   12.3430 C   0  0  0  0  0  0  0  0  0  0  0  0
    4.4560   -1.1000   12.0310 O   0  0  0  0  0  0  0  0  0  0  0  0
    7.4270    2.3610   10.9970 C   0  0  0  0  0  0  0  0  0  0  0  0
    7.7990    1.3620   10.0930 C   0  0  0  0  0  0  0  0  0  0  0  0
    8.0090    0.0550   10.5460 C   0  0  0  0  0  0  0  0  0  0  0  0
    7.8230   -0.2610   11.8930 C   0  0  0  0  0  0  0  0  0  0  0  0
    7.5990   -4.7960   16.5970 C   0  0  2  0  0  0  0  0  0  0  0  0
    6.4280   -4.1280   15.8420 C   0  0  0  0  0  0  0  0  0  0  0  0
    4.2650   -2.8880   16.1130 C   0  0  1  0  0  0  0  0  0  0  0  0
    8.8810   -4.8270   15.7180 C   0  0  0  0  0  0  0  0  0  0  0  0
    9.2400   -3.4070   15.2640 C   0  0  0  0  0  0  0  0  0  0  0  0
   10.0410   -5.4610   16.4960 C   0  0  0  0  0  0  0  0  0  0  0  0
    2.3020   -7.0000   15.7140 C   0  0  0  0  0  0  0  0  0  0  0  0
    2.8620   -7.7770   16.7320 C   0  0  0  0  0  0  0  0  0  0  0  0
    3.4970   -7.1530   17.8100 C   0  0  0  0  0  0  0  0  0  0  0  0
    3.5710   -5.7600   17.8700 C   0  0  0  0  0  0  0  0  0  0  0  0
    3.0110   -4.9780   16.8460 C   0  0  0  0  0  0  0  0  0  0  0  0
    2.3770   -5.6060   15.7630 C   0  0  0  0  0  0  0  0  0  0  0  0
    3.0810   -3.4810   16.9250 C   0  0  0  0  0  0  0  0  0  0  0  0
    4.1990   -1.3540   16.2440 C   0  0  0  0  0  0  0  0  0  0  0  0
    5.4480   -0.5510   15.8870 C   0  0  1  0  0  0  0  0  0  0  0  0
    5.7540   -0.3530   14.3780 C   0  0  2  0  0  0  0  0  0  0  0  0
    4.1930    0.0050   12.4850 C   0  0  0  0  0  0  0  0  0  0  0  0
    3.2120    0.9340   11.7440 C   0  0  1  0  0  0  0  0  0  0  0  0
    3.0700    2.1870   12.4830 O   0  0  0  0  0  0  0  0  0  0  0  0
    7.1130    0.3830   14.2250 C   0  0  0  0  0  0  0  0  0  0  0  0
    3.2290    3.2910   11.6340 C   0  0  0  0  0  0  0  0  0  0  0  0
    3.1010    4.4110   12.0440 O   0  0  0  0  0  0  0  0  0  0  0  0
    3.4590    2.8200   10.3270 N   0  0  0  0  0  0  0  0  0  0  0  0
    3.6830    1.3450   10.3270 C   0  0  0  0  0  0  0  0  0  0  0  0
    3.8250    3.6910    9.2460 C   0  0  0  0  0  0  0  0  0  0  0  0
    5.0250    3.5220    8.5350 C   0  0  0  0  0  0  0  0  0  0  0  0
    5.3330    4.4370    7.5310 C   0  0  0  0  0  0  0  0  0  0  0  0
    4.4780    5.5120    7.2410 C   0  0  0  0  0  0  0  0  0  0  0  0
    3.2760    5.6680    7.9360 C   0  0  0  0  0  0  0  0  0  0  0  0
    2.9460    4.7480    8.9330 C   0  0  0  0  0  0  0  0  0  0  0  0
    4.8150    6.3890    6.2980 F   0  0  0  0  0  0  0  0  0  0  0  0
    6.4640    4.2960    6.8450 F   0  0  0  0  0  0  0  0  0  0  0  0
    7.0120   -6.8190   16.1930 H   0  0  0  0  0  0  0  0  0  0  0  0
    6.3450   -8.5050   17.7060 H   0  0  0  0  0  0  0  0  0  0  0  0
    8.0540   -8.7200   18.2380 H   0  0  0  0  0  0  0  0  0  0  0  0
    6.7670   -8.3550   19.4580 H   0  0  0  0  0  0  0  0  0  0  0  0
    5.6200   -3.4280   17.6790 H   0  0  0  0  0  0  0  0  0  0  0  0
    4.5200    1.3660   14.0640 H   0  0  0  0  0  0  0  0  0  0  0  0
    6.0820    0.9940   16.9450 H   0  0  0  0  0  0  0  0  0  0  0  0
    6.9310    2.8320   13.0430 H   0  0  0  0  0  0  0  0  0  0  0  0
    7.3000    3.3890   10.6510 H   0  0  0  0  0  0  0  0  0  0  0  0
    7.9240    1.6020    9.0360 H   0  0  0  0  0  0  0  0  0  0  0  0
    8.3170   -0.7160    9.8410 H   0  0  0  0  0  0  0  0  0  0  0  0
    8.0030   -1.2750   12.2470 H   0  0  0  0  0  0  0  0  0  0  0  0
    7.8230   -4.2170   17.5340 H   0  0  0  0  0  0  0  0  0  0  0  0
    4.1740   -3.1930   15.0370 H   0  0  0  0  0  0  0  0  0  0  0  0
    8.6720   -5.4580   14.8170 H   0  0  0  0  0  0  0  0  0  0  0  0
   10.2300   -3.4170   14.7560 H   0  0  0  0  0  0  0  0  0  0  0  0
    8.4750   -3.0240   14.5530 H   0  0  0  0  0  0  0  0  0  0  0  0
    9.3010   -2.7190   16.1360 H   0  0  0  0  0  0  0  0  0  0  0  0
   10.9080   -5.5750   15.8160 H   0  0  0  0  0  0  0  0  0  0  0  0
   10.3360   -4.8210   17.3560 H   0  0  0  0  0  0  0  0  0  0  0  0
    9.7640   -6.4710   16.8720 H   0  0  0  0  0  0  0  0  0  0  0  0
    1.8140   -7.4810   14.8720 H   0  0  0  0  0  0  0  0  0  0  0  0
    2.8080   -8.8670   16.6900 H   0  0  0  0  0  0  0  0  0  0  0  0
    3.9370   -7.7560   18.6080 H   0  0  0  0  0  0  0  0  0  0  0  0
    4.0700   -5.2770   18.7120 H   0  0  0  0  0  0  0  0  0  0  0  0
    1.9330   -5.0070   14.9700 H   0  0  0  0  0  0  0  0  0  0  0  0
    2.1340   -3.0280   16.5480 H   0  0  0  0  0  0  0  0  0  0  0  0
    3.1850   -3.1720   17.9980 H   0  0  0  0  0  0  0  0  0  0  0  0
    4.0310   -1.1360   17.3320 H   0  0  0  0  0  0  0  0  0  0  0  0
    3.3210   -0.9870   15.6630 H   0  0  0  0  0  0  0  0  0  0  0  0
    6.3520   -0.9850   16.3860 H   0  0  0  0  0  0  0  0  0  0  0  0
    5.8390   -1.3700   13.9040 H   0  0  0  0  0  0  0  0  0  0  0  0
    2.1900    0.4760   11.7400 H   0  0  0  0  0  0  0  0  0  0  0  0
    7.1050    1.3070   14.8590 H   0  0  0  0  0  0  0  0  0  0  0  0
    7.9200   -0.2690   14.6450 H   0  0  0  0  0  0  0  0  0  0  0  0
    3.0470    0.8780    9.5300 H   0  0  0  0  0  0  0  0  0  0  0  0
    4.7620    1.1010   10.1430 H   0  0  0  0  0  0  0  0  0  0  0  0
    5.7020    2.6900    8.7490 H   0  0  0  0  0  0  0  0  0  0  0  0
    2.5930    6.4950    7.7060 H   0  0  0  0  0  0  0  0  0  0  0  0
    1.9910    4.8580    9.4570 H   0  0  0  0  0  0  0  0  0  0  0  0
  1  5  1  0  0  0  0
  1 16  1  0  0  0  0
  1 48  1  0  0  0  0
  2  5  2  0  0  0  0
  3  5  1  0  0  0  0
  3 49  1  0  0  0  0
  3 50  1  0  0  0  0
  3 51  1  0  0  0  0
  4 17  2  0  0  0  0
  6 17  1  0  0  0  0
  6 18  1  0  0  0  0
  6 52  1  0  0  0  0
  7 10  2  0  0  0  0
  7 15  1  0  0  0  0
  7 35  1  0  0  0  0
  8 31  1  0  0  0  0
  8 32  1  0  0  0  0
  8 53  1  0  0  0  0
  9 30  1  0  0  0  0
  9 54  1  0  0  0  0
 10 12  1  0  0  0  0
 10 55  1  0  0  0  0
 11 32  2  0  0  0  0
 12 13  2  0  0  0  0
 12 56  1  0  0  0  0
 13 14  1  0  0  0  0
 13 57  1  0  0  0  0
 14 15  2  0  0  0  0
 14 58  1  0  0  0  0
 15 59  1  0  0  0  0
 16 17  1  0  0  0  0
 16 19  1  0  0  0  0
 16 60  1  1  0  0  0
 18 28  1  0  0  0  0
 18 29  1  0  0  0  0
 18 61  1  6  0  0  0
 19 20  1  0  0  0  0
 19 21  1  0  0  0  0
 19 62  1  0  0  0  0
 20 63  1  0  0  0  0
 20 64  1  0  0  0  0
 20 65  1  0  0  0  0
 21 66  1  0  0  0  0
 21 67  1  0  0  0  0
 21 68  1  0  0  0  0
 22 23  2  0  0  0  0
 22 27  1  0  0  0  0
 22 69  1  0  0  0  0
 23 24  1  0  0  0  0
 23 70  1  0  0  0  0
 24 25  2  0  0  0  0
 24 71  1  0  0  0  0
 25 26  1  0  0  0  0
 25 72  1  0  0  0  0
 26 27  2  0  0  0  0
 26 28  1  0  0  0  0
 27 73  1  0  0  0  0
 28 74  1  0  0  0  0
 28 75  1  0  0  0  0
 29 30  1  0  0  0  0
 29 76  1  0  0  0  0
 29 77  1  0  0  0  0
 30 31  1  0  0  0  0
 30 78  1  1  0  0  0
 31 35  1  0  0  0  0
 31 79  1  6  0  0  0
 32 33  1  0  0  0  0
 33 34  1  0  0  0  0
 33 39  1  0  0  0  0
 33 80  1  6  0  0  0
 34 36  1  0  0  0  0
 35 81  1  0  0  0  0
 35 82  1  0  0  0  0
 36 37  2  0  0  0  0
 36 38  1  0  0  0  0
 38 39  1  0  0  0  0
 38 40  1  0  0  0  0
 39 83  1  0  0  0  0
 39 84  1  0  0  0  0
 40 41  2  0  0  0  0
 40 45  1  0  0  0  0
 41 42  1  0  0  0  0
 41 85  1  0  0  0  0
 42 43  2  0  0  0  0
 42 47  1  0  0  0  0
 43 44  1  0  0  0  0
 43 46  1  0  0  0  0
 44 45  2  0  0  0  0
 44 86  1  0  0  0  0
 45 87  1  0  0  0  0
M  END
>  <charge>
0

>  <KI_NM>
2.13

>  <number_of_rotatable_bonds>
17

>  <lm5_entropy_jk>
42.441311785015955

>  <ligand_crystal_conformation>
A

$$$$
