model13a
 OpenBabel11252210453D

 87 90  0  0  1  0  0  0  0  0999 V2000
    7.2170   -8.2880   18.4830 C   0  0  0  0  0  0  0  0  0  0  0  0
    7.1770   -6.2900   17.0570 N   0  0  0  0  0  0  0  0  0  0  0  0
    7.7360   -6.0650   19.2670 O   0  0  0  0  0  0  0  0  0  0  0  0
    6.2940   -4.3740   14.7050 O   0  0  0  0  0  0  0  0  0  0  0  0
    7.4160   -6.8060   18.3470 C   0  0  0  0  0  0  0  0  0  0  0  0
    5.5930   -3.4580   16.6660 N   0  0  0  0  0  0  0  0  0  0  0  0
    6.9600    0.7770   12.6020 C   0  0  0  0  0  0  0  0  0  0  0  0
    4.2310    0.2990   13.7510 N   0  0  0  0  0  0  0  0  0  0  0  0
    5.1140    0.7060   16.4900 O   0  0  0  0  0  0  0  0  0  0  0  0
    6.3920    1.8380   11.8800 C   0  0  0  0  0  0  0  0  0  0  0  0
    3.9190   -1.4150   12.2910 O   0  0  0  0  0  0  0  0  0  0  0  0
    6.5840    1.9270   10.4990 C   0  0  0  0  0  0  0  0  0  0  0  0
    7.3540    0.9680    9.8340 C   0  0  0  0  0  0  0  0  0  0  0  0
    7.9490   -0.0700   10.5570 C   0  0  0  0  0  0  0  0  0  0  0  0
    7.7550   -0.1700   11.9360 C   0  0  0  0  0  0  0  0  0  0  0  0
    7.5880   -4.9090   16.7270 C   0  0  2  0  0  0  0  0  0  0  0  0
    6.4440   -4.2710   15.9110 C   0  0  0  0  0  0  0  0  0  0  0  0
    4.2950   -2.9770   16.1260 C   0  0  1  0  0  0  0  0  0  0  0  0
    8.9500   -4.8660   15.9750 C   0  0  0  0  0  0  0  0  0  0  0  0
    9.2590   -3.4380   15.5130 C   0  0  0  0  0  0  0  0  0  0  0  0
   10.0470   -5.3940   16.9120 C   0  0  0  0  0  0  0  0  0  0  0  0
    2.2240   -7.0750   15.5730 C   0  0  0  0  0  0  0  0  0  0  0  0
    2.8620   -7.9110   16.4950 C   0  0  0  0  0  0  0  0  0  0  0  0
    3.6010   -7.3500   17.5420 C   0  0  0  0  0  0  0  0  0  0  0  0
    3.6940   -5.9630   17.6710 C   0  0  0  0  0  0  0  0  0  0  0  0
    3.0520   -5.1210   16.7470 C   0  0  0  0  0  0  0  0  0  0  0  0
    2.3210   -5.6870   15.6910 C   0  0  0  0  0  0  0  0  0  0  0  0
    3.1240   -3.6300   16.9140 C   0  0  0  0  0  0  0  0  0  0  0  0
    4.1720   -1.4490   16.2950 C   0  0  0  0  0  0  0  0  0  0  0  0
    5.3400   -0.5750   15.8400 C   0  0  1  0  0  0  0  0  0  0  0  0
    5.4660   -0.3030   14.3160 C   0  0  2  0  0  0  0  0  0  0  0  0
    3.5940   -0.3020   12.6860 C   0  0  0  0  0  0  0  0  0  0  0  0
    2.4050    0.4150   12.0170 C   0  0  1  0  0  0  0  0  0  0  0  0
    1.9650    1.5680   12.7980 O   0  0  0  0  0  0  0  0  0  0  0  0
    6.6830    0.6290   14.0700 C   0  0  0  0  0  0  0  0  0  0  0  0
    1.6680    2.6490   11.9460 C   0  0  0  0  0  0  0  0  0  0  0  0
    1.1470    3.6440   12.3700 O   0  0  0  0  0  0  0  0  0  0  0  0
    2.1750    2.3580   10.6650 N   0  0  0  0  0  0  0  0  0  0  0  0
    2.7390    0.9760   10.6130 C   0  0  0  0  0  0  0  0  0  0  0  0
    1.7870    3.0610    9.4700 C   0  0  0  0  0  0  0  0  0  0  0  0
    2.7360    3.2420    8.4510 C   0  0  0  0  0  0  0  0  0  0  0  0
    2.3870    3.9770    7.3160 C   0  0  0  0  0  0  0  0  0  0  0  0
    1.1150    4.5460    7.2040 C   0  0  0  0  0  0  0  0  0  0  0  0
    0.1780    4.3690    8.2280 C   0  0  0  0  0  0  0  0  0  0  0  0
    0.4970    3.6110    9.3560 C   0  0  0  0  0  0  0  0  0  0  0  0
    6.5550   -8.7170   17.6910 H   0  0  0  0  0  0  0  0  0  0  0  0
    7.0730   -6.9440   16.2620 H   0  0  0  0  0  0  0  0  0  0  0  0
    8.2050   -8.8100   18.4120 H   0  0  0  0  0  0  0  0  0  0  0  0
    5.6680   -3.4210   17.6980 H   0  0  0  0  0  0  0  0  0  0  0  0
    3.9760    1.2250   14.0910 H   0  0  0  0  0  0  0  0  0  0  0  0
    6.0040    0.9220   16.9610 H   0  0  0  0  0  0  0  0  0  0  0  0
    5.8010    2.5990   12.3940 H   0  0  0  0  0  0  0  0  0  0  0  0
    6.1270    2.7420    9.9310 H   0  0  0  0  0  0  0  0  0  0  0  0
    7.4750    1.0310    8.7510 H   0  0  0  0  0  0  0  0  0  0  0  0
    8.5590   -0.8100   10.0410 H   0  0  0  0  0  0  0  0  0  0  0  0
    8.2250   -0.9810   12.4950 H   0  0  0  0  0  0  0  0  0  0  0  0
    7.7120   -4.3440   17.6920 H   0  0  0  0  0  0  0  0  0  0  0  0
    4.2270   -3.2560   15.0430 H   0  0  0  0  0  0  0  0  0  0  0  0
    8.8900   -5.5290   15.0760 H   0  0  0  0  0  0  0  0  0  0  0  0
   10.2920   -3.3950   15.1010 H   0  0  0  0  0  0  0  0  0  0  0  0
    8.5500   -3.1200   14.7170 H   0  0  0  0  0  0  0  0  0  0  0  0
    9.1920   -2.7220   16.3600 H   0  0  0  0  0  0  0  0  0  0  0  0
   11.0400   -5.2700   16.4390 H   0  0  0  0  0  0  0  0  0  0  0  0
   10.0460   -4.8310   17.8700 H   0  0  0  0  0  0  0  0  0  0  0  0
    9.8960   -6.4750   17.1200 H   0  0  0  0  0  0  0  0  0  0  0  0
    1.6540   -7.5080   14.7560 H   0  0  0  0  0  0  0  0  0  0  0  0
    2.7890   -8.9960   16.4030 H   0  0  0  0  0  0  0  0  0  0  0  0
    4.1040   -7.9990   18.2620 H   0  0  0  0  0  0  0  0  0  0  0  0
    4.2680   -5.5310   18.4930 H   0  0  0  0  0  0  0  0  0  0  0  0
    1.8140   -5.0450   14.9730 H   0  0  0  0  0  0  0  0  0  0  0  0
    2.1690   -3.1590   16.5810 H   0  0  0  0  0  0  0  0  0  0  0  0
    3.2390   -3.3850   18.0020 H   0  0  0  0  0  0  0  0  0  0  0  0
    4.0790   -1.2540   17.3960 H   0  0  0  0  0  0  0  0  0  0  0  0
    3.2290   -1.1220   15.7990 H   0  0  0  0  0  0  0  0  0  0  0  0
    6.3100   -0.9870   16.2160 H   0  0  0  0  0  0  0  0  0  0  0  0
    5.6620   -1.2900   13.8090 H   0  0  0  0  0  0  0  0  0  0  0  0
    1.5240   -0.2750   12.0030 H   0  0  0  0  0  0  0  0  0  0  0  0
    6.4970    1.6260   14.5440 H   0  0  0  0  0  0  0  0  0  0  0  0
    7.5720    0.1980   14.6000 H   0  0  0  0  0  0  0  0  0  0  0  0
    2.2720    0.3710    9.7970 H   0  0  0  0  0  0  0  0  0  0  0  0
    3.8470    1.0420   10.4310 H   0  0  0  0  0  0  0  0  0  0  0  0
    3.7470    2.8380    8.5420 H   0  0  0  0  0  0  0  0  0  0  0  0
    3.1230    4.1230    6.5180 H   0  0  0  0  0  0  0  0  0  0  0  0
    0.8550    5.1310    6.3170 H   0  0  0  0  0  0  0  0  0  0  0  0
   -0.8150    4.8200    8.1400 H   0  0  0  0  0  0  0  0  0  0  0  0
   -0.2600    3.4500   10.1240 H   0  0  0  0  0  0  0  0  0  0  0  0
    6.7690   -8.5350   19.4770 H   0  0  0  0  0  0  0  0  0  0  0  0
  1  5  1  0  0  0  0
  1 46  1  0  0  0  0
  1 48  1  0  0  0  0
  1 87  1  0  0  0  0
  2  5  1  0  0  0  0
  2 16  1  0  0  0  0
  2 47  1  0  0  0  0
  3  5  2  0  0  0  0
  4 17  2  0  0  0  0
  6 17  1  0  0  0  0
  6 18  1  0  0  0  0
  6 49  1  0  0  0  0
  7 10  2  0  0  0  0
  7 15  1  0  0  0  0
  7 35  1  0  0  0  0
  8 31  1  0  0  0  0
  8 32  1  0  0  0  0
  8 50  1  0  0  0  0
  9 30  1  0  0  0  0
  9 51  1  0  0  0  0
 10 12  1  0  0  0  0
 10 52  1  0  0  0  0
 11 32  2  0  0  0  0
 12 13  2  0  0  0  0
 12 53  1  0  0  0  0
 13 14  1  0  0  0  0
 13 54  1  0  0  0  0
 14 15  2  0  0  0  0
 14 55  1  0  0  0  0
 15 56  1  0  0  0  0
 16 17  1  0  0  0  0
 16 19  1  0  0  0  0
 16 57  1  1  0  0  0
 18 28  1  0  0  0  0
 18 29  1  0  0  0  0
 18 58  1  6  0  0  0
 19 20  1  0  0  0  0
 19 21  1  0  0  0  0
 19 59  1  0  0  0  0
 20 60  1  0  0  0  0
 20 61  1  0  0  0  0
 20 62  1  0  0  0  0
 21 63  1  0  0  0  0
 21 64  1  0  0  0  0
 21 65  1  0  0  0  0
 22 23  2  0  0  0  0
 22 27  1  0  0  0  0
 22 66  1  0  0  0  0
 23 24  1  0  0  0  0
 23 67  1  0  0  0  0
 24 25  2  0  0  0  0
 24 68  1  0  0  0  0
 25 26  1  0  0  0  0
 25 69  1  0  0  0  0
 26 27  2  0  0  0  0
 26 28  1  0  0  0  0
 27 70  1  0  0  0  0
 28 71  1  0  0  0  0
 28 72  1  0  0  0  0
 29 30  1  0  0  0  0
 29 73  1  0  0  0  0
 29 74  1  0  0  0  0
 30 31  1  0  0  0  0
 30 75  1  1  0  0  0
 31 35  1  0  0  0  0
 31 76  1  6  0  0  0
 32 33  1  0  0  0  0
 33 34  1  0  0  0  0
 33 39  1  0  0  0  0
 33 77  1  1  0  0  0
 34 36  1  0  0  0  0
 35 78  1  0  0  0  0
 35 79  1  0  0  0  0
 36 37  2  0  0  0  0
 36 38  1  0  0  0  0
 38 39  1  0  0  0  0
 38 40  1  0  0  0  0
 39 80  1  0  0  0  0
 39 81  1  0  0  0  0
 40 41  2  0  0  0  0
 40 45  1  0  0  0  0
 41 42  1  0  0  0  0
 41 82  1  0  0  0  0
 42 43  2  0  0  0  0
 42 83  1  0  0  0  0
 43 44  1  0  0  0  0
 43 84  1  0  0  0  0
 44 45  2  0  0  0  0
 44 85  1  0  0  0  0
 45 86  1  0  0  0  0
M  END
>  <charge>
0

>  <KI_NM>
0.85

>  <number_of_rotatable_bonds>
17

>  <lm5_entropy_jk>
42.441311785015955

>  <ligand_crystal_conformation>
A

$$$$
