1HSG_A-chB_H.pdb
 OpenBabel11252210453D

 93 97  0  0  1  0  0  0  0  0999 V2000
    6.1090    0.8420   11.3730 C   0  0  0  0  0  0  0  0  0  0  0  0
    7.4000    1.6480   11.5350 N   0  3  1  0  0  0  0  0  0  0  0  0
    3.8580   -0.9620   12.5640 O   0  0  0  0  0  0  0  0  0  0  0  0
    5.2140    1.0690   12.6060 C   0  0  1  0  0  0  0  0  0  0  0  0
    2.8340    1.0570   12.0720 N   0  0  0  0  0  0  0  0  0  0  0  0
    5.1530   -0.3860   17.2330 O   0  0  0  0  0  0  0  0  0  0  0  0
    3.9080    0.2440   12.4000 C   0  0  0  0  0  0  0  0  0  0  0  0
    5.9150    0.5590   13.8290 N   0  0  0  0  0  0  0  0  0  0  0  0
    5.3780   -4.2220   15.0660 O   0  0  0  0  0  0  0  0  0  0  0  0
    1.4090    0.5650   11.9140 C   0  0  0  0  0  0  0  0  0  0  0  0
    6.0650   -4.1030   17.2490 N   0  0  0  0  0  0  0  0  0  0  0  0
    6.5120   -5.6950   19.7250 O   0  0  0  0  0  0  0  0  0  0  0  0
    0.5210    1.8100   11.7470 C   0  0  0  0  0  0  0  0  0  0  0  0
    7.7990    4.4800    8.0260 N   0  0  0  0  0  0  0  0  0  0  0  0
    1.0530   -0.1910   13.2020 C   0  0  0  0  0  0  0  0  0  0  0  0
    1.3360   -0.3220   10.6620 C   0  0  0  0  0  0  0  0  0  0  0  0
    7.1760    1.3540   14.0250 C   0  0  0  0  0  0  0  0  0  0  0  0
    8.1090    1.1830   12.8130 C   0  0  0  0  0  0  0  0  0  0  0  0
    5.0590    0.6470   15.0600 C   0  0  0  0  0  0  0  0  0  0  0  0
    5.1760   -0.6990   15.8260 C   0  0  2  0  0  0  0  0  0  0  0  0
    3.9770   -1.6250   15.6140 C   0  0  0  0  0  0  0  0  0  0  0  0
    4.0410   -2.8410   16.5540 C   0  0  1  0  0  0  0  0  0  0  0  0
    2.7170   -3.6340   16.4970 C   0  0  0  0  0  0  0  0  0  0  0  0
    2.8100   -5.0470   17.0100 C   0  0  0  0  0  0  0  0  0  0  0  0
    3.1160   -5.2870   18.3590 C   0  0  0  0  0  0  0  0  0  0  0  0
    3.1550   -6.5920   18.8540 C   0  0  0  0  0  0  0  0  0  0  0  0
    2.9260   -7.6730   17.9960 C   0  0  0  0  0  0  0  0  0  0  0  0
    2.6410   -7.4400   16.6470 C   0  0  0  0  0  0  0  0  0  0  0  0
    2.5610   -6.1340   16.1560 C   0  0  0  0  0  0  0  0  0  0  0  0
    5.1980   -3.7730   16.1870 C   0  0  0  0  0  0  0  0  0  0  0  0
    6.8520   -5.3440   17.2450 C   0  0  2  0  0  0  0  0  0  0  0  0
    6.5260   -6.3290   18.4370 C   0  0  1  0  0  0  0  0  0  0  0  0
    7.7810   -7.2370   18.5080 C   0  0  0  0  0  0  0  0  0  0  0  0
    8.8810   -6.3000   18.0950 C   0  0  0  0  0  0  0  0  0  0  0  0
   10.2370   -6.4010   18.3550 C   0  0  0  0  0  0  0  0  0  0  0  0
   11.0700   -5.3520   17.9260 C   0  0  0  0  0  0  0  0  0  0  0  0
   10.5510   -4.2470   17.2540 C   0  0  0  0  0  0  0  0  0  0  0  0
    9.1750   -4.1530   16.9670 C   0  0  0  0  0  0  0  0  0  0  0  0
    8.3530   -5.1780   17.3920 C   0  0  0  0  0  0  0  0  0  0  0  0
    8.3080    1.4910   10.3040 C   0  0  0  0  0  0  0  0  0  0  0  0
    7.8300    2.3280    9.1550 C   0  0  0  0  0  0  0  0  0  0  0  0
    8.0990    3.7140    9.1050 C   0  0  0  0  0  0  0  0  0  0  0  0
    7.2010    3.8860    6.9580 C   0  0  0  0  0  0  0  0  0  0  0  0
    6.8690    2.5190    6.9470 C   0  0  0  0  0  0  0  0  0  0  0  0
    7.1850    1.7360    8.0560 C   0  0  0  0  0  0  0  0  0  0  0  0
    6.3810   -0.2460   11.3000 H   0  0  0  0  0  0  0  0  0  0  0  0
    5.5860    1.1810   10.4350 H   0  0  0  0  0  0  0  0  0  0  0  0
    4.9890    2.1690   12.6940 H   0  0  0  0  0  0  0  0  0  0  0  0
    3.0200    2.0030   11.7270 H   0  0  0  0  0  0  0  0  0  0  0  0
    6.0630    0.0550   17.4580 H   0  0  0  0  0  0  0  0  0  0  0  0
    5.8980   -3.6770   18.1780 H   0  0  0  0  0  0  0  0  0  0  0  0
    6.0540   -4.8140   19.6980 H   0  0  0  0  0  0  0  0  0  0  0  0
   -0.5480    1.5010   11.6850 H   0  0  0  0  0  0  0  0  0  0  0  0
    0.6270    2.4960   12.6130 H   0  0  0  0  0  0  0  0  0  0  0  0
    0.7770    2.3610   10.8130 H   0  0  0  0  0  0  0  0  0  0  0  0
   -0.0330   -0.4120   13.2200 H   0  0  0  0  0  0  0  0  0  0  0  0
    1.6330   -1.1410   13.2640 H   0  0  0  0  0  0  0  0  0  0  0  0
    1.3110    0.4360   14.0800 H   0  0  0  0  0  0  0  0  0  0  0  0
    0.2950   -0.6760   10.5130 H   0  0  0  0  0  0  0  0  0  0  0  0
    1.6520    0.2660    9.7700 H   0  0  0  0  0  0  0  0  0  0  0  0
    2.0190   -1.1920   10.7710 H   0  0  0  0  0  0  0  0  0  0  0  0
    7.6990    0.9260   14.9300 H   0  0  0  0  0  0  0  0  0  0  0  0
    6.9840    2.4460   14.2000 H   0  0  0  0  0  0  0  0  0  0  0  0
    9.0340    1.7970   12.9750 H   0  0  0  0  0  0  0  0  0  0  0  0
    8.3790    0.0950   12.7000 H   0  0  0  0  0  0  0  0  0  0  0  0
    3.9990    0.8690   14.7980 H   0  0  0  0  0  0  0  0  0  0  0  0
    5.4240    1.4570   15.7420 H   0  0  0  0  0  0  0  0  0  0  0  0
    6.1510   -1.1850   15.5910 H   0  0  0  0  0  0  0  0  0  0  0  0
    3.9550   -1.9250   14.5400 H   0  0  0  0  0  0  0  0  0  0  0  0
    3.0360   -1.0650   15.8400 H   0  0  0  0  0  0  0  0  0  0  0  0
    4.1680   -2.4390   17.5990 H   0  0  0  0  0  0  0  0  0  0  0  0
    2.3360   -3.6300   15.4480 H   0  0  0  0  0  0  0  0  0  0  0  0
    1.9820   -3.0740   17.1340 H   0  0  0  0  0  0  0  0  0  0  0  0
    3.3270   -4.4490   19.0220 H   0  0  0  0  0  0  0  0  0  0  0  0
    3.3670   -6.7660   19.9120 H   0  0  0  0  0  0  0  0  0  0  0  0
    2.9740   -8.6940   18.3800 H   0  0  0  0  0  0  0  0  0  0  0  0
    2.4870   -8.2880   15.9780 H   0  0  0  0  0  0  0  0  0  0  0  0
    2.2950   -5.9620   15.1140 H   0  0  0  0  0  0  0  0  0  0  0  0
    6.6470   -5.8940   16.2770 H   0  0  0  0  0  0  0  0  0  0  0  0
    5.5690   -6.8670   18.3070 H   0  0  0  0  0  0  0  0  0  0  0  0
    7.6870   -8.0950   17.7950 H   0  0  0  0  0  0  0  0  0  0  0  0
    7.9130   -7.6490   19.5350 H   0  0  0  0  0  0  0  0  0  0  0  0
   10.6580   -7.2660   18.8680 H   0  0  0  0  0  0  0  0  0  0  0  0
   12.1390   -5.4050   18.1260 H   0  0  0  0  0  0  0  0  0  0  0  0
   11.2080   -3.4290   16.9580 H   0  0  0  0  0  0  0  0  0  0  0  0
    8.7910   -3.2820   16.4350 H   0  0  0  0  0  0  0  0  0  0  0  0
    8.3380    0.4010   10.0240 H   0  0  0  0  0  0  0  0  0  0  0  0
    9.3430    1.8200   10.5940 H   0  0  0  0  0  0  0  0  0  0  0  0
    8.5670    4.2200    9.9640 H   0  0  0  0  0  0  0  0  0  0  0  0
    6.9750    4.5300    6.0880 H   0  0  0  0  0  0  0  0  0  0  0  0
    6.3670    2.0750    6.0800 H   0  0  0  0  0  0  0  0  0  0  0  0
    6.9310    0.6720    8.0740 H   0  0  0  0  0  0  0  0  0  0  0  0
    7.1460    2.6670   11.6380 H   0  0  0  0  0  0  0  0  0  0  0  0
  1  2  1  0  0  0  0
  1  4  1  0  0  0  0
  1 46  1  0  0  0  0
  1 47  1  0  0  0  0
  2 18  1  0  0  0  0
  2 40  1  0  0  0  0
  2 93  1  1  0  0  0
  3  7  2  0  0  0  0
  4  7  1  0  0  0  0
  4  8  1  0  0  0  0
  4 48  1  1  0  0  0
  5  7  1  0  0  0  0
  5 10  1  0  0  0  0
  5 49  1  0  0  0  0
  6 20  1  0  0  0  0
  6 50  1  0  0  0  0
  8 17  1  0  0  0  0
  8 19  1  0  0  0  0
  9 30  2  0  0  0  0
 10 13  1  0  0  0  0
 10 15  1  0  0  0  0
 10 16  1  0  0  0  0
 11 30  1  0  0  0  0
 11 31  1  0  0  0  0
 11 51  1  0  0  0  0
 12 32  1  0  0  0  0
 12 52  1  0  0  0  0
 13 53  1  0  0  0  0
 13 54  1  0  0  0  0
 13 55  1  0  0  0  0
 14 42  2  0  0  0  0
 14 43  1  0  0  0  0
 15 56  1  0  0  0  0
 15 57  1  0  0  0  0
 15 58  1  0  0  0  0
 16 59  1  0  0  0  0
 16 60  1  0  0  0  0
 16 61  1  0  0  0  0
 17 18  1  0  0  0  0
 17 62  1  0  0  0  0
 17 63  1  0  0  0  0
 18 64  1  0  0  0  0
 18 65  1  0  0  0  0
 19 20  1  0  0  0  0
 19 66  1  0  0  0  0
 19 67  1  0  0  0  0
 20 21  1  0  0  0  0
 20 68  1  6  0  0  0
 21 22  1  0  0  0  0
 21 69  1  0  0  0  0
 21 70  1  0  0  0  0
 22 23  1  0  0  0  0
 22 30  1  0  0  0  0
 22 71  1  1  0  0  0
 23 24  1  0  0  0  0
 23 72  1  0  0  0  0
 23 73  1  0  0  0  0
 24 25  2  0  0  0  0
 24 29  1  0  0  0  0
 25 26  1  0  0  0  0
 25 74  1  0  0  0  0
 26 27  2  0  0  0  0
 26 75  1  0  0  0  0
 27 28  1  0  0  0  0
 27 76  1  0  0  0  0
 28 29  2  0  0  0  0
 28 77  1  0  0  0  0
 29 78  1  0  0  0  0
 31 32  1  0  0  0  0
 31 39  1  0  0  0  0
 31 79  1  6  0  0  0
 32 33  1  0  0  0  0
 32 80  1  6  0  0  0
 33 34  1  0  0  0  0
 33 81  1  0  0  0  0
 33 82  1  0  0  0  0
 34 35  2  0  0  0  0
 34 39  1  0  0  0  0
 35 36  1  0  0  0  0
 35 83  1  0  0  0  0
 36 37  2  0  0  0  0
 36 84  1  0  0  0  0
 37 38  1  0  0  0  0
 37 85  1  0  0  0  0
 38 39  2  0  0  0  0
 38 86  1  0  0  0  0
 40 41  1  0  0  0  0
 40 87  1  0  0  0  0
 40 88  1  0  0  0  0
 41 42  1  0  0  0  0
 41 45  2  0  0  0  0
 42 89  1  0  0  0  0
 43 44  2  0  0  0  0
 43 90  1  0  0  0  0
 44 45  1  0  0  0  0
 44 91  1  0  0  0  0
 45 92  1  0  0  0  0
M  CHG  1   2   1
M  END
>  <charge>
1

>  <KI_NM>
0.12

>  <number_of_rotatable_bonds>
14

>  <lm5_entropy_jk>
41.86641068412992

>  <ligand_crystal_conformation>
B

$$$$
