3LJO
 OpenBabel11252210453D

 61 63  0  0  1  0  0  0  0  0999 V2000
    2.2610   20.1680   18.1070 N   0  0  0  0  0  0  0  0  0  0  0  0
    0.2240   21.1720   15.1630 N   0  3  0  0  0  0  0  0  0  0  0  0
    0.7540   17.2850   19.7590 N   0  0  0  0  0  0  0  0  0  0  0  0
   -1.5780   12.3820   14.9570 N   0  3  0  0  0  0  0  0  0  0  0  0
   -2.5680   14.2910   13.9750 N   0  0  0  0  0  0  0  0  0  0  0  0
    2.3330   19.0580   19.0780 C   0  0  1  0  0  0  0  0  0  0  0  0
    3.2140   19.5740   20.2450 C   0  0  0  0  0  0  0  0  0  0  0  0
    3.0910   21.1150   20.1790 C   0  0  0  0  0  0  0  0  0  0  0  0
    2.7310   21.4380   18.7110 C   0  0  0  0  0  0  0  0  0  0  0  0
    0.9110   18.6320   19.5190 C   0  0  0  0  0  0  0  0  0  0  0  0
    1.6660   19.9950   16.8640 C   0  0  0  0  0  0  0  0  0  0  0  0
    1.5390   21.2080   15.9960 C   0  0  0  0  0  0  0  0  0  0  0  0
    0.1650   22.3630   14.2270 C   0  0  0  0  0  0  0  0  0  0  0  0
    1.0630   22.1830   12.9770 C   0  0  0  0  0  0  0  0  0  0  0  0
    1.0160   23.4330   12.0580 C   0  0  0  0  0  0  0  0  0  0  0  0
   -0.4380   23.7480   11.6360 C   0  0  0  0  0  0  0  0  0  0  0  0
   -1.3480   23.9250   12.8740 C   0  0  0  0  0  0  0  0  0  0  0  0
   -1.2830   22.6650   13.7790 C   0  0  0  0  0  0  0  0  0  0  0  0
   -0.5830   16.6450   19.8710 C   0  0  0  0  0  0  0  0  0  0  0  0
   -0.9460   15.8880   18.6140 C   0  0  0  0  0  0  0  0  0  0  0  0
   -1.0920   14.5010   18.6500 C   0  0  0  0  0  0  0  0  0  0  0  0
   -1.4110   13.7950   17.4840 C   0  0  0  0  0  0  0  0  0  0  0  0
   -1.6010   14.4700   16.2560 C   0  0  0  0  0  0  0  0  0  0  0  0
   -1.4710   15.8770   16.2340 C   0  0  0  0  0  0  0  0  0  0  0  0
   -1.1330   16.5730   17.4070 C   0  0  0  0  0  0  0  0  0  0  0  0
   -1.9400   13.6950   15.0330 C   0  0  0  0  0  0  0  0  0  0  0  0
   -0.0260   19.4100   19.6310 O   0  0  0  0  0  0  0  0  0  0  0  0
    1.2660   18.9150   16.4690 O   0  0  0  0  0  0  0  0  0  0  0  0
    2.7800   18.1780   18.5980 H   0  0  0  0  0  0  0  0  0  0  0  0
    4.2610   19.2730   20.0940 H   0  0  0  0  0  0  0  0  0  0  0  0
    2.8900   19.1700   21.2160 H   0  0  0  0  0  0  0  0  0  0  0  0
    2.2780   21.4620   20.8390 H   0  0  0  0  0  0  0  0  0  0  0  0
    4.0040   21.6390   20.5070 H   0  0  0  0  0  0  0  0  0  0  0  0
    0.1350   20.2800   14.6310 H   0  0  0  0  0  0  0  0  0  0  0  0
   -0.6050   21.1810   15.7870 H   0  0  0  0  0  0  0  0  0  0  0  0
    1.9460   22.2110   18.6790 H   0  0  0  0  0  0  0  0  0  0  0  0
    3.6120   21.8180   18.1670 H   0  0  0  0  0  0  0  0  0  0  0  0
    1.5570   22.0840   16.6440 H   0  0  0  0  0  0  0  0  0  0  0  0
    2.4140   21.2180   15.3450 H   0  0  0  0  0  0  0  0  0  0  0  0
    0.5260   23.2370   14.7870 H   0  0  0  0  0  0  0  0  0  0  0  0
    2.1050   21.9970   13.2770 H   0  0  0  0  0  0  0  0  0  0  0  0
    0.7490   21.2960   12.4090 H   0  0  0  0  0  0  0  0  0  0  0  0
    1.4490   24.3020   12.5800 H   0  0  0  0  0  0  0  0  0  0  0  0
    1.6450   23.2810   11.1660 H   0  0  0  0  0  0  0  0  0  0  0  0
   -0.8270   22.9420   10.9940 H   0  0  0  0  0  0  0  0  0  0  0  0
   -0.4630   24.6590   11.0180 H   0  0  0  0  0  0  0  0  0  0  0  0
   -2.3860   24.1220   12.5580 H   0  0  0  0  0  0  0  0  0  0  0  0
   -1.0380   24.8180   13.4420 H   0  0  0  0  0  0  0  0  0  0  0  0
   -1.6990   21.8080   13.2370 H   0  0  0  0  0  0  0  0  0  0  0  0
   -1.9290   22.8200   14.6580 H   0  0  0  0  0  0  0  0  0  0  0  0
    1.5740   16.6920   19.6310 H   0  0  0  0  0  0  0  0  0  0  0  0
   -0.6030   15.9670   20.7340 H   0  0  0  0  0  0  0  0  0  0  0  0
   -1.3600   17.4050   20.0500 H   0  0  0  0  0  0  0  0  0  0  0  0
   -0.9600   13.9660   19.5880 H   0  0  0  0  0  0  0  0  0  0  0  0
   -1.5220   12.7180   17.5540 H   0  0  0  0  0  0  0  0  0  0  0  0
   -1.6120   16.4470   15.3160 H   0  0  0  0  0  0  0  0  0  0  0  0
   -1.0110   17.6560   17.3840 H   0  0  0  0  0  0  0  0  0  0  0  0
   -2.0650   11.7530   14.3190 H   0  0  0  0  0  0  0  0  0  0  0  0
   -0.9220   12.0010   15.6360 H   0  0  0  0  0  0  0  0  0  0  0  0
   -3.0060   13.6620   13.2990 H   0  0  0  0  0  0  0  0  0  0  0  0
   -3.0090   15.1970   14.1190 H   0  0  0  0  0  0  0  0  0  0  0  0
  1  6  1  0  0  0  0
  1  9  1  0  0  0  0
  1 11  1  0  0  0  0
  2 12  1  0  0  0  0
  2 13  1  0  0  0  0
  2 34  1  0  0  0  0
  2 35  1  0  0  0  0
  3 10  1  0  0  0  0
  3 19  1  0  0  0  0
  3 51  1  0  0  0  0
  4 26  2  0  0  0  0
  4 58  1  0  0  0  0
  4 59  1  0  0  0  0
  5 26  1  0  0  0  0
  5 60  1  0  0  0  0
  5 61  1  0  0  0  0
  6  7  1  0  0  0  0
  6 10  1  0  0  0  0
  6 29  1  6  0  0  0
  7  8  1  0  0  0  0
  7 30  1  0  0  0  0
  7 31  1  0  0  0  0
  8  9  1  0  0  0  0
  8 32  1  0  0  0  0
  8 33  1  0  0  0  0
  9 36  1  0  0  0  0
  9 37  1  0  0  0  0
 10 27  2  0  0  0  0
 11 12  1  0  0  0  0
 11 28  2  0  0  0  0
 12 38  1  0  0  0  0
 12 39  1  0  0  0  0
 13 14  1  0  0  0  0
 13 18  1  0  0  0  0
 13 40  1  0  0  0  0
 14 15  1  0  0  0  0
 14 41  1  0  0  0  0
 14 42  1  0  0  0  0
 15 16  1  0  0  0  0
 15 43  1  0  0  0  0
 15 44  1  0  0  0  0
 16 17  1  0  0  0  0
 16 45  1  0  0  0  0
 16 46  1  0  0  0  0
 17 18  1  0  0  0  0
 17 47  1  0  0  0  0
 17 48  1  0  0  0  0
 18 49  1  0  0  0  0
 18 50  1  0  0  0  0
 19 20  1  0  0  0  0
 19 52  1  0  0  0  0
 19 53  1  0  0  0  0
 20 21  2  0  0  0  0
 20 25  1  0  0  0  0
 21 22  1  0  0  0  0
 21 54  1  0  0  0  0
 22 23  2  0  0  0  0
 22 55  1  0  0  0  0
 23 24  1  0  0  0  0
 23 26  1  0  0  0  0
 24 25  2  0  0  0  0
 24 56  1  0  0  0  0
 25 57  1  0  0  0  0
M  CHG  2   2   1   4   1
M  END
>  <number_of_rotatable_bonds>
9

>  <lm5_entropy_jk>
23.819977463858184

>  <deltaG_kcalmol>
-9.04

>  <charge>
2

$$$$
