1dAc_1k1m.pdb
 OpenBabel11252210453D

 66 69  0  0  1  0  0  0  0  0999 V2000
    0.5510   22.1480   16.6200 C   0  0  0  0  0  0  0  0  0  0  0  0
    0.0750   21.4300   15.5450 C   0  0  0  0  0  0  0  0  0  0  0  0
    0.9840   20.8460   14.6160 C   0  0  0  0  0  0  0  0  0  0  0  0
    2.3400   20.9890   14.7830 C   0  0  0  0  0  0  0  0  0  0  0  0
    4.2710   21.8950   16.0910 C   0  0  0  0  0  0  0  0  0  0  0  0
    4.7380   22.6330   17.1480 C   0  0  0  0  0  0  0  0  0  0  0  0
    3.8270   23.2360   18.0680 C   0  0  0  0  0  0  0  0  0  0  0  0
    2.4750   23.0780   17.9110 C   0  0  0  0  0  0  0  0  0  0  0  0
    1.9560   22.3160   16.8120 C   0  0  0  0  0  0  0  0  0  0  0  0
    2.8630   21.7240   15.8910 C   0  0  0  0  0  0  0  0  0  0  0  0
   -1.6210   21.1490   15.3250 S   0  0  0  0  0  0  0  0  0  0  0  0
   -2.0880   13.8560   15.0750 C   0  0  0  0  0  0  0  0  0  0  0  0
   -1.8080   19.5460   15.9390 N   0  0  0  0  0  0  0  0  0  0  0  0
   -1.6380   19.1930   17.3500 C   0  0  1  0  0  0  0  0  0  0  0  0
   -1.9880   21.0310   13.9130 O   0  0  0  0  0  0  0  0  0  0  0  0
   -2.4270   22.0900   16.0970 O   0  0  0  0  0  0  0  0  0  0  0  0
   -2.6350   18.0660   17.7510 C   0  0  0  0  0  0  0  0  0  0  0  0
   -0.1850   18.7170   17.6410 C   0  0  0  0  0  0  0  0  0  0  0  0
    0.5070   18.2040   16.7690 O   0  0  0  0  0  0  0  0  0  0  0  0
    1.9480   20.3990   20.6710 N   0  0  0  0  0  0  0  0  0  0  0  0
   -1.7480   12.5390   14.9610 N   0  3  0  0  0  0  0  0  0  0  0  0
    2.7830   21.1350   21.5470 C   0  0  0  0  0  0  0  0  0  0  0  0
    3.9530   20.7950   21.6540 O   0  0  0  0  0  0  0  0  0  0  0  0
   -2.6440   14.4190   13.9620 N   0  0  0  0  0  0  0  0  0  0  0  0
    2.1750   22.2430   22.3480 C   0  0  0  0  0  0  0  0  0  0  0  0
   -1.8130   14.6250   16.3050 C   0  0  0  0  0  0  0  0  0  0  0  0
   -1.1660   14.0220   17.4030 C   0  0  0  0  0  0  0  0  0  0  0  0
   -0.9850   14.7370   18.5870 C   0  0  0  0  0  0  0  0  0  0  0  0
   -1.4550   16.0460   18.7040 C   0  0  0  0  0  0  0  0  0  0  0  0
   -2.1000   16.6680   17.6200 C   0  0  0  0  0  0  0  0  0  0  0  0
   -2.2550   15.9570   16.4250 C   0  0  0  0  0  0  0  0  0  0  0  0
   -0.3140   19.5650   20.0530 C   0  0  0  0  0  0  0  0  0  0  0  0
    0.5520   20.8090   20.3710 C   0  0  0  0  0  0  0  0  0  0  0  0
    2.5680   19.5520   19.6130 C   0  0  0  0  0  0  0  0  0  0  0  0
    1.6790   18.3390   19.2750 C   0  0  0  0  0  0  0  0  0  0  0  0
    0.2790   18.7520   18.9600 N   0  0  0  0  0  0  0  0  0  0  0  0
    1.6240   17.6260   20.1400 H   0  0  0  0  0  0  0  0  0  0  0  0
   -0.1240   22.6140   17.3530 H   0  0  0  0  0  0  0  0  0  0  0  0
    0.5970   20.2800   13.7620 H   0  0  0  0  0  0  0  0  0  0  0  0
    3.0430   20.5490   14.0660 H   0  0  0  0  0  0  0  0  0  0  0  0
    4.9630   21.4280   15.3810 H   0  0  0  0  0  0  0  0  0  0  0  0
    5.8140   22.7790   17.3020 H   0  0  0  0  0  0  0  0  0  0  0  0
    4.2270   23.8330   18.8960 H   0  0  0  0  0  0  0  0  0  0  0  0
    1.7710   23.5390   18.6120 H   0  0  0  0  0  0  0  0  0  0  0  0
   -1.6520   18.7420   15.2910 H   0  0  0  0  0  0  0  0  0  0  0  0
   -1.8900   20.1050   17.9670 H   0  0  0  0  0  0  0  0  0  0  0  0
   -3.5540   18.1830   17.1080 H   0  0  0  0  0  0  0  0  0  0  0  0
   -1.3450   11.9960   15.7470 H   0  0  0  0  0  0  0  0  0  0  0  0
   -3.0400   13.7820   13.2200 H   0  0  0  0  0  0  0  0  0  0  0  0
    1.7260   23.0280   21.6820 H   0  0  0  0  0  0  0  0  0  0  0  0
   -0.8080   12.9930   17.3630 H   0  0  0  0  0  0  0  0  0  0  0  0
   -0.4810   14.2670   19.4390 H   0  0  0  0  0  0  0  0  0  0  0  0
   -1.3120   16.5950   19.6420 H   0  0  0  0  0  0  0  0  0  0  0  0
   -2.7330   16.4760   15.5950 H   0  0  0  0  0  0  0  0  0  0  0  0
   -1.3550   19.9010   19.8180 H   0  0  0  0  0  0  0  0  0  0  0  0
    0.5230   21.5170   19.5020 H   0  0  0  0  0  0  0  0  0  0  0  0
    3.5590   19.1760   19.9860 H   0  0  0  0  0  0  0  0  0  0  0  0
    2.1120   17.8040   18.3940 H   0  0  0  0  0  0  0  0  0  0  0  0
   -2.9620   18.2400   18.8100 H   0  0  0  0  0  0  0  0  0  0  0  0
   -2.1510   11.9550   14.1880 H   0  0  0  0  0  0  0  0  0  0  0  0
   -2.9650   15.4070   13.9340 H   0  0  0  0  0  0  0  0  0  0  0  0
    2.9490   22.7500   22.9820 H   0  0  0  0  0  0  0  0  0  0  0  0
   -0.3710   18.9050   20.9630 H   0  0  0  0  0  0  0  0  0  0  0  0
    0.0870   21.3190   21.2600 H   0  0  0  0  0  0  0  0  0  0  0  0
    2.7140   20.1650   18.6850 H   0  0  0  0  0  0  0  0  0  0  0  0
    1.3680   21.8760   23.0320 H   0  0  0  0  0  0  0  0  0  0  0  0
  1  2  2  0  0  0  0
  1  9  1  0  0  0  0
  1 38  1  0  0  0  0
  2  3  1  0  0  0  0
  2 11  1  0  0  0  0
  3  4  2  0  0  0  0
  3 39  1  0  0  0  0
  4 10  1  0  0  0  0
  4 40  1  0  0  0  0
  5  6  2  0  0  0  0
  5 10  1  0  0  0  0
  5 41  1  0  0  0  0
  6  7  1  0  0  0  0
  6 42  1  0  0  0  0
  7  8  2  0  0  0  0
  7 43  1  0  0  0  0
  8  9  1  0  0  0  0
  8 44  1  0  0  0  0
  9 10  2  0  0  0  0
 11 13  1  0  0  0  0
 11 15  2  0  0  0  0
 11 16  2  0  0  0  0
 12 21  2  0  0  0  0
 12 24  1  0  0  0  0
 12 26  1  0  0  0  0
 13 14  1  0  0  0  0
 13 45  1  0  0  0  0
 14 17  1  0  0  0  0
 14 18  1  0  0  0  0
 14 46  1  1  0  0  0
 17 30  1  0  0  0  0
 17 47  1  0  0  0  0
 17 59  1  0  0  0  0
 18 19  2  0  0  0  0
 18 36  1  0  0  0  0
 20 22  1  0  0  0  0
 20 33  1  0  0  0  0
 20 34  1  0  0  0  0
 21 48  1  0  0  0  0
 21 60  1  0  0  0  0
 22 23  2  0  0  0  0
 22 25  1  0  0  0  0
 24 49  1  0  0  0  0
 24 61  1  0  0  0  0
 25 50  1  0  0  0  0
 25 62  1  0  0  0  0
 25 66  1  0  0  0  0
 26 27  2  0  0  0  0
 26 31  1  0  0  0  0
 27 28  1  0  0  0  0
 27 51  1  0  0  0  0
 28 29  2  0  0  0  0
 28 52  1  0  0  0  0
 29 30  1  0  0  0  0
 29 53  1  0  0  0  0
 30 31  2  0  0  0  0
 31 54  1  0  0  0  0
 32 33  1  0  0  0  0
 32 36  1  0  0  0  0
 32 55  1  0  0  0  0
 32 63  1  0  0  0  0
 33 56  1  0  0  0  0
 33 64  1  0  0  0  0
 34 35  1  0  0  0  0
 34 57  1  0  0  0  0
 34 65  1  0  0  0  0
 35 36  1  0  0  0  0
 35 37  1  0  0  0  0
 35 58  1  0  0  0  0
M  CHG  1  21   1
M  END
>  <deltaG_kcalmol>
-10.10

>  <charge>
1

>  <lm5_entropy_jk>
30.960690819094914

>  <number_of_rotatable_bonds>
9

$$$$
