@<TRIPOS>MOLECULE
NAP
   73    77     1     0     0
SMALL
resp


@<TRIPOS>ATOM
      1 P1          0.0440   -1.9030   -0.8120 p5        1 NAP      1.288080
      2 O1          0.2040   -3.2030   -1.5080 o         1 NAP     -0.858848
      3 O2          0.1400   -1.8000    0.6480 o         1 NAP     -0.858848
      4 O3         -1.2840   -1.2770   -1.4370 os        1 NAP     -0.483136
      5 C1         -1.6730    0.0420   -1.0220 c3        1 NAP      0.009433
      6 C2         -3.0000    0.3140   -1.7740 c3        1 NAP     -0.025872
      7 O4         -4.0120   -0.6480   -1.3780 os        1 NAP     -0.436648
      8 C3         -3.6100    1.7220   -1.5660 c3        1 NAP      0.065394
      9 O5         -4.1510    2.1130   -2.8380 oh        1 NAP     -0.771446
     10 C4         -4.7210    1.4140   -0.5210 c3        1 NAP      0.406256
     11 O6         -5.8200    2.3500   -0.7160 os        1 NAP     -0.634815
     12 C5         -5.1990    0.0230   -0.9800 c3        1 NAP      0.145700
     13 N1         -5.7640   -0.7090    0.1010 na        1 NAP     -0.007979
     14 C6         -5.3520   -0.8420    1.4100 cc        1 NAP      0.152419
     15 N2         -6.1140   -1.6120    2.1510 nd        1 NAP     -0.643151
     16 C7         -7.0910   -2.0180    1.2780 ca        1 NAP      0.031219
     17 C8         -8.1840   -2.8570    1.5660 ca        1 NAP      0.721619
     18 N3         -8.4430   -3.4240    2.7450 nh        1 NAP     -0.945520
     19 N4         -9.0110   -3.1020    0.4960 nb        1 NAP     -0.878291
     20 C9         -8.7690   -2.5300   -0.7450 ca        1 NAP      0.586024
     21 N5         -7.7210   -1.7100   -1.0260 nb        1 NAP     -0.757727
     22 C10        -6.8830   -1.4640    0.0410 ca        1 NAP      0.454678
     23 O7          1.0900   -0.9080   -1.5180 os        1 NAP     -0.493272
     24 P2          2.4740   -0.1180   -1.1730 p5        1 NAP      1.096485
     25 O8          2.0840    1.1810   -0.5680 o         1 NAP     -0.796418
     26 O9          3.3190   -0.1660   -2.3740 o         1 NAP     -0.796418
     27 O10         3.2230   -1.0540   -0.1380 os        1 NAP     -0.441439
     28 C11         3.0190   -0.9910    1.3040 c3        1 NAP      0.032903
     29 C12         4.1560   -0.2440    1.9680 c3        1 NAP      0.095984
     30 O11         5.4850   -0.8710    1.7860 os        1 NAP     -0.396018
     31 C13         4.4330    1.1960    1.4500 c3        1 NAP      0.237800
     32 O12         3.4870    2.1570    1.7800 oh        1 NAP     -0.631177
     33 C14         5.8350    1.4570    2.0200 c3        1 NAP      0.057223
     34 O13         5.6890    1.7540    3.4190 oh        1 NAP     -0.657282
     35 C15         6.5280    0.1300    1.8470 c3        1 NAP      0.000907
     36 N6          7.2850   -0.0680    0.5650 na        1 NAP      0.097816
     37 C16         8.6610   -0.1280    0.6460 ca        1 NAP     -0.020769
     38 C17         9.3810   -0.1890   -0.5470 ca        1 NAP     -0.151829
     39 C18        10.9030   -0.2660   -0.4510 c         1 NAP      0.717192
     40 O14        11.5490   -0.0650   -1.4640 o         1 NAP     -0.578049
     41 N7         11.4030   -0.7020    0.6910 n         1 NAP     -0.912444
     42 C19         8.6830   -0.1770   -1.7900 ca        1 NAP     -0.015460
     43 C20         7.2650   -0.1210   -1.8660 ca        1 NAP     -0.117139
     44 C21         6.5690   -0.0820   -0.6500 ca        1 NAP      0.115192
     45 P3         -6.0350    3.5760    0.3630 p5        1 NAP      1.342357
     46 O15        -7.0610    2.9290    1.3810 o         1 NAP     -0.961683
     47 O16        -4.7360    4.0320    0.9330 o         1 NAP     -0.961683
     48 O17        -6.8130    4.5740   -0.5390 o         1 NAP     -0.961683
     49 H1          3.7180    2.8990    1.4620 ho        1 NAP      0.463937
     50 H2         -4.4960    2.8760   -2.7730 ho        1 NAP      0.497495
     51 H3          6.4470    1.7740    3.7810 ho        1 NAP      0.443962
     52 H4         12.2550   -0.7620    0.7920 hn        1 NAP      0.426730
     53 H5         10.8770   -0.9250    1.3340 hn        1 NAP      0.426730
     54 H6         -9.1340   -3.9260    2.8390 hn        1 NAP      0.409984
     55 H7         -7.9170   -3.2870    3.4120 hn        1 NAP      0.409984
     56 H8          2.1770   -0.5480    1.4980 h1        1 NAP      0.150777
     57 H9         -1.7970    0.0870   -0.0610 h1        1 NAP      0.124167
     58 H10         2.9580   -1.8890    1.6670 h1        1 NAP      0.150777
     59 H11        -0.9970    0.6970   -1.2520 h1        1 NAP      0.124167
     60 H12        -4.5600   -0.4020    1.7560 h5        1 NAP      0.216889
     61 H13         5.5990   -0.0660   -0.6450 h4        1 NAP      0.167642
     62 H14         6.8010   -0.1090   -2.7180 ha        1 NAP      0.205645
     63 H15         9.1940   -0.2080   -2.6140 ha        1 NAP      0.187532
     64 H16         3.8260   -0.2540    2.8800 h1        1 NAP      0.126390
     65 H17        -2.7540    0.2400   -2.7090 h1        1 NAP      0.183362
     66 H18         4.3790    1.2630    0.4830 h1        1 NAP      0.087495
     67 H19        -3.0180    2.4310   -1.2710 h1        1 NAP      0.125105
     68 H20         9.1130   -0.1290    1.5050 h4        1 NAP      0.137598
     69 H21         6.3140    2.1870    1.5980 h1        1 NAP      0.074935
     70 H22        -4.4280    1.4670    0.4020 h1        1 NAP      0.007765
     71 H23        -9.3910   -2.7290   -1.4620 h5        1 NAP      0.043935
     72 H24         7.1630    0.0760    2.5780 h2        1 NAP      0.178528
     73 H25        -5.8700    0.0980   -1.6770 h2        1 NAP      0.168831
@<TRIPOS>BOND
     1    1    2 1   
     2    1    3 1   
     3    1    4 1   
     4    1   23 1   
     5    4    5 1   
     6    5    6 1   
     7    5   57 1   
     8    5   59 1   
     9    6    7 1   
    10    6    8 1   
    11    6   65 1   
    12    7   12 1   
    13    8    9 1   
    14    8   10 1   
    15    8   67 1   
    16    9   50 1   
    17   10   11 1   
    18   10   12 1   
    19   10   70 1   
    20   11   45 1   
    21   12   13 1   
    22   12   73 1   
    23   13   14 1   
    24   13   22 1   
    25   14   15 2   
    26   14   60 1   
    27   15   16 1   
    28   16   17 ar  
    29   16   22 ar  
    30   17   18 1   
    31   17   19 ar  
    32   18   54 1   
    33   18   55 1   
    34   19   20 ar  
    35   20   21 ar  
    36   20   71 1   
    37   21   22 ar  
    38   23   24 1   
    39   24   25 1   
    40   24   26 1   
    41   24   27 1   
    42   27   28 1   
    43   28   29 1   
    44   28   56 1   
    45   28   58 1   
    46   29   30 1   
    47   29   31 1   
    48   29   64 1   
    49   30   35 1   
    50   31   32 1   
    51   31   33 1   
    52   31   66 1   
    53   32   49 1   
    54   33   34 1   
    55   33   35 1   
    56   33   69 1   
    57   34   51 1   
    58   35   36 1   
    59   35   72 1   
    60   36   37 1   
    61   36   44 2   
    62   37   38 ar  
    63   37   68 1   
    64   38   39 1   
    65   38   42 ar  
    66   39   40 2   
    67   39   41 1   
    68   41   52 1   
    69   41   53 1   
    70   42   43 ar  
    71   42   63 1   
    72   43   44 ar  
    73   43   62 1   
    74   44   61 1   
    75   45   46 1   
    76   45   47 1   
    77   45   48 1   
@<TRIPOS>SUBSTRUCTURE
     1 NAP         1 TEMP              0 ****  ****    0 ROOT
