3RNI
 OpenBabel11252210453D

 39 41  0  0  0  0  0  0  0  0999 V2000
   65.6990  154.4680  -50.2700 N   0  0  0  0  0  0  0  0  0  0  0  0
   64.2180  154.8390  -48.4490 N   0  0  0  0  0  0  0  0  0  0  0  0
   67.2950  153.6130  -51.8600 N   0  0  0  0  0  0  0  0  0  0  0  0
   60.9310  157.8370  -45.9300 N   0  0  0  0  0  0  0  0  0  0  0  0
   67.3190  152.8240  -49.5520 C   0  0  0  0  0  0  0  0  0  0  0  0
   66.8170  153.6440  -50.5880 C   0  0  0  0  0  0  0  0  0  0  0  0
   65.2990  154.1930  -49.0040 C   0  0  0  0  0  0  0  0  0  0  0  0
   68.3960  151.8830  -49.6450 C   0  0  0  0  0  0  0  0  0  0  0  0
   63.6200  154.6050  -47.1650 C   0  0  0  0  0  0  0  0  0  0  0  0
   68.5860  150.9140  -48.5140 C   0  0  0  0  0  0  0  0  0  0  0  0
   62.8590  155.6690  -46.6260 C   0  0  0  0  0  0  0  0  0  0  0  0
   62.2910  155.5490  -45.3560 C   0  0  0  0  0  0  0  0  0  0  0  0
   62.4590  154.3670  -44.6260 C   0  0  0  0  0  0  0  0  0  0  0  0
   63.1710  153.3000  -45.1860 C   0  0  0  0  0  0  0  0  0  0  0  0
   63.7360  153.3970  -46.4580 C   0  0  0  0  0  0  0  0  0  0  0  0
   67.5270  150.0920  -48.1050 C   0  0  0  0  0  0  0  0  0  0  0  0
   67.7240  149.1570  -47.0860 C   0  0  0  0  0  0  0  0  0  0  0  0
   68.9820  149.0190  -46.4930 C   0  0  0  0  0  0  0  0  0  0  0  0
   70.0390  149.8330  -46.9070 C   0  0  0  0  0  0  0  0  0  0  0  0
   69.8450  150.7870  -47.9110 C   0  0  0  0  0  0  0  0  0  0  0  0
   69.1410  151.8290  -50.6190 O   0  0  0  0  0  0  0  0  0  0  0  0
   60.2460  156.4040  -43.8750 O   0  0  0  0  0  0  0  0  0  0  0  0
   62.3500  157.6780  -43.7950 O   0  0  0  0  0  0  0  0  0  0  0  0
   66.3420  152.9640  -48.1330 S   0  0  0  0  0  0  0  0  0  0  0  0
   61.4320  156.8780  -44.6170 S   0  0  0  0  0  0  0  0  0  0  0  0
   63.6260  155.4180  -49.0960 H   0  0  0  0  0  0  0  0  0  0  0  0
   66.9310  154.2390  -52.6020 H   0  0  0  0  0  0  0  0  0  0  0  0
   68.1400  153.0640  -52.0660 H   0  0  0  0  0  0  0  0  0  0  0  0
   60.7370  158.8380  -45.7750 H   0  0  0  0  0  0  0  0  0  0  0  0
   60.2410  157.4200  -46.5990 H   0  0  0  0  0  0  0  0  0  0  0  0
   62.7170  156.5760  -47.2260 H   0  0  0  0  0  0  0  0  0  0  0  0
   62.0410  154.2420  -43.6210 H   0  0  0  0  0  0  0  0  0  0  0  0
   63.2920  152.3730  -44.6160 H   0  0  0  0  0  0  0  0  0  0  0  0
   64.2320  152.5190  -46.8770 H   0  0  0  0  0  0  0  0  0  0  0  0
   66.5450  150.1580  -48.5710 H   0  0  0  0  0  0  0  0  0  0  0  0
   66.8940  148.5380  -46.7420 H   0  0  0  0  0  0  0  0  0  0  0  0
   69.1290  148.2720  -45.7080 H   0  0  0  0  0  0  0  0  0  0  0  0
   71.0090  149.7190  -46.4250 H   0  0  0  0  0  0  0  0  0  0  0  0
   70.6680  151.4350  -48.2190 H   0  0  0  0  0  0  0  0  0  0  0  0
  1  7  2  0  0  0  0
  2  9  1  0  0  0  0
  2 26  1  0  0  0  0
  3  6  1  0  0  0  0
  3 27  1  0  0  0  0
  3 28  1  0  0  0  0
  4 25  1  0  0  0  0
  4 29  1  0  0  0  0
  4 30  1  0  0  0  0
  5 24  1  0  0  0  0
  6  1  1  0  0  0  0
  6  5  2  0  0  0  0
  7  2  1  0  0  0  0
  7 24  1  0  0  0  0
  8  5  1  0  0  0  0
  8 10  1  0  0  0  0
  9 11  2  0  0  0  0
  9 15  1  0  0  0  0
 10 20  2  0  0  0  0
 10 16  1  0  0  0  0
 11 12  1  0  0  0  0
 11 31  1  0  0  0  0
 12 25  1  0  0  0  0
 12 13  2  0  0  0  0
 13 32  1  0  0  0  0
 14 13  1  0  0  0  0
 14 33  1  0  0  0  0
 15 14  2  0  0  0  0
 15 34  1  0  0  0  0
 16 17  2  0  0  0  0
 16 35  1  0  0  0  0
 17 18  1  0  0  0  0
 17 36  1  0  0  0  0
 18 37  1  0  0  0  0
 19 18  2  0  0  0  0
 19 38  1  0  0  0  0
 20 19  1  0  0  0  0
 20 39  1  0  0  0  0
 21  8  2  0  0  0  0
 25 22  2  0  0  0  0
 25 23  2  0  0  0  0
M  END
>  <lm5_entropy_jk>
22.397995528352578

>  <number_of_rotatable_bonds>
5

>  <IC50_NM>
6700

>  <charge>
0

$$$$
