4LAU
 OpenBabel11252210453D

 35 36  0  0  0  0  0  0  0  0999 V2000
   14.1690  -11.8190   18.8000 Cl  0  0  0  0  0  0  0  0  0  0  0  0
   18.4870   -4.8560   12.4650 C   0  0  0  0  0  0  0  0  0  0  0  0
   17.9310   -5.9720   13.1120 C   0  0  0  0  0  0  0  0  0  0  0  0
   16.6890   -6.4660   12.6820 C   0  0  0  0  0  0  0  0  0  0  0  0
   17.7980   -4.2140   11.4310 C   0  0  0  0  0  0  0  0  0  0  0  0
   15.9840   -5.8280   11.6570 C   0  0  0  0  0  0  0  0  0  0  0  0
   16.5410   -4.6940   11.0640 C   0  0  0  0  0  0  0  0  0  0  0  0
   18.6910   -6.5930   14.2680 C   0  0  0  0  0  0  0  0  0  0  0  0
   17.8410   -7.3840   15.1760 N   0  0  0  0  0  0  0  0  0  0  0  0
   17.7420   -8.7670   15.0580 C   0  0  0  0  0  0  0  0  0  0  0  0
   18.3070   -9.3660   14.1440 O   0  0  0  0  0  0  0  0  0  0  0  0
   16.4730   -8.9320   17.2950 C   0  0  0  0  0  0  0  0  0  0  0  0
   16.9170   -9.4950   16.0650 C   0  0  0  0  0  0  0  0  0  0  0  0
   16.5740  -10.8250   15.7800 C   0  0  0  0  0  0  0  0  0  0  0  0
   15.5900   -9.6450   18.1340 C   0  0  0  0  0  0  0  0  0  0  0  0
   15.7530  -11.5680   16.6310 C   0  0  0  0  0  0  0  0  0  0  0  0
   15.2590  -10.9410   17.7740 C   0  0  0  0  0  0  0  0  0  0  0  0
   17.0050   -7.7280   17.5750 O   0  0  0  0  0  0  0  0  0  0  0  0
   16.6710   -6.9870   18.7900 C   0  0  0  0  0  0  0  0  0  0  0  0
   15.5320   -5.9510   18.4630 C   0  0  0  0  0  0  0  0  0  0  0  0
   15.0120   -5.4370   19.4730 O   0  0  0  0  0  0  0  0  0  0  0  0
   15.2340   -5.7540   17.2790 O   0  5  0  0  0  0  0  0  0  0  0  0
   15.4970   -3.7020    9.7900 Br  0  0  0  0  0  0  0  0  0  0  0  0
   17.6550   -6.5070   18.9870 H   0  0  0  0  0  0  0  0  0  0  0  0
   19.4400   -4.4460   12.7980 H   0  0  0  0  0  0  0  0  0  0  0  0
   16.2480   -7.3410   13.1660 H   0  0  0  0  0  0  0  0  0  0  0  0
   18.2230   -3.3240   10.9600 H   0  0  0  0  0  0  0  0  0  0  0  0
   15.0010   -6.1980   11.3500 H   0  0  0  0  0  0  0  0  0  0  0  0
   19.1700   -5.7760   14.8770 H   0  0  0  0  0  0  0  0  0  0  0  0
   17.3440   -6.8510   15.9000 H   0  0  0  0  0  0  0  0  0  0  0  0
   16.9410  -11.3030   14.8610 H   0  0  0  0  0  0  0  0  0  0  0  0
   15.1990   -9.2170   19.0550 H   0  0  0  0  0  0  0  0  0  0  0  0
   15.5030  -12.6030   16.3960 H   0  0  0  0  0  0  0  0  0  0  0  0
   16.4030   -7.6730   19.6070 H   0  0  0  0  0  0  0  0  0  0  0  0
   19.5120   -7.2520   13.8640 H   0  0  0  0  0  0  0  0  0  0  0  0
  1 17  1  0  0  0  0
  2  3  2  0  0  0  0
  2  5  1  0  0  0  0
  2 25  1  0  0  0  0
  3  4  1  0  0  0  0
  3  8  1  0  0  0  0
  4  6  2  0  0  0  0
  4 26  1  0  0  0  0
  5  7  2  0  0  0  0
  5 27  1  0  0  0  0
  6  7  1  0  0  0  0
  6 28  1  0  0  0  0
  7 23  1  0  0  0  0
  8  9  1  0  0  0  0
  8 29  1  0  0  0  0
  8 35  1  0  0  0  0
  9 10  1  0  0  0  0
  9 30  1  0  0  0  0
 10 11  2  0  0  0  0
 10 13  1  0  0  0  0
 12 13  2  0  0  0  0
 12 15  1  0  0  0  0
 12 18  1  0  0  0  0
 13 14  1  0  0  0  0
 14 16  2  0  0  0  0
 14 31  1  0  0  0  0
 15 17  2  0  0  0  0
 15 32  1  0  0  0  0
 16 17  1  0  0  0  0
 16 33  1  0  0  0  0
 18 19  1  0  0  0  0
 19 20  1  0  0  0  0
 19 24  1  0  0  0  0
 19 34  1  0  0  0  0
 20 21  2  0  0  0  0
 20 22  1  0  0  0  0
M  CHG  1  22  -1
M  END
>  <deltaG_kcalmol>
-9.95

>  <charge>
-1

>  <lm5_entropy_jk>
25.63780735381752

>  <number_of_rotatable_bonds>
7

$$$$
