5NXP
 OpenBabel11252210453D

 38 39  0  0  0  0  0  0  0  0999 V2000
   -2.2230    8.3360   11.7170 N   0  0  0  0  0  0  0  0  0  0  0  0
   -4.0280    6.6050   12.7960 N   0  0  0  0  0  0  0  0  0  0  0  0
   -5.8750    1.3420   16.0700 N   0  5  0  0  0  0  0  0  0  0  0  0
   -3.6650    8.5190   11.3580 C   0  0  0  0  0  0  0  0  0  0  0  0
   -1.4530    7.5310   10.7430 C   0  0  0  0  0  0  0  0  0  0  0  0
   -4.5540    5.6600   13.6840 C   0  0  0  0  0  0  0  0  0  0  0  0
   -1.5990    9.1770   12.6470 C   0  0  0  0  0  0  0  0  0  0  0  0
   -0.4540    9.9060   12.2950 C   0  0  0  0  0  0  0  0  0  0  0  0
    0.1490   10.7870   13.2090 C   0  0  0  0  0  0  0  0  0  0  0  0
   -0.4000   10.9330   14.4920 C   0  0  0  0  0  0  0  0  0  0  0  0
   -1.5330   10.1930   14.8650 C   0  0  0  0  0  0  0  0  0  0  0  0
   -2.1290    9.3230   13.9370 C   0  0  0  0  0  0  0  0  0  0  0  0
   -5.7320    5.8820   14.3950 C   0  0  0  0  0  0  0  0  0  0  0  0
   -6.1940    4.9480   15.3280 C   0  0  0  0  0  0  0  0  0  0  0  0
   -5.4570    3.7710   15.5410 C   0  0  0  0  0  0  0  0  0  0  0  0
   -4.2480    3.5540   14.8630 C   0  0  0  0  0  0  0  0  0  0  0  0
   -3.8200    4.5020   13.9250 C   0  0  0  0  0  0  0  0  0  0  0  0
   -4.6250    7.6160   12.1070 C   0  0  0  0  0  0  0  0  0  0  0  0
   -5.8280    7.7880   12.0630 O   0  0  0  0  0  0  0  0  0  0  0  0
   -4.9610    2.7480   17.7970 O   0  0  0  0  0  0  0  0  0  0  0  0
   -7.3420    3.0660   17.1290 O   0  0  0  0  0  0  0  0  0  0  0  0
   -5.9940    2.6900   16.8030 S   0  0  0  0  0  0  0  0  0  0  0  0
   -3.0220    6.6150   12.6950 H   0  0  0  0  0  0  0  0  0  0  0  0
   -5.0460    1.3050   16.7220 H   0  0  0  0  0  0  0  0  0  0  0  0
   -0.0430    9.8080   11.2930 H   0  0  0  0  0  0  0  0  0  0  0  0
    1.0320   11.3620   12.9210 H   0  0  0  0  0  0  0  0  0  0  0  0
   -2.8880    4.3410   13.3900 H   0  0  0  0  0  0  0  0  0  0  0  0
   -2.0080    6.6380   10.4190 H   0  0  0  0  0  0  0  0  0  0  0  0
   -0.5060    7.1830   11.1820 H   0  0  0  0  0  0  0  0  0  0  0  0
   -1.2100    8.1210    9.8470 H   0  0  0  0  0  0  0  0  0  0  0  0
   -3.8470    8.3450   10.2910 H   0  0  0  0  0  0  0  0  0  0  0  0
   -3.9930    9.5420   11.5740 H   0  0  0  0  0  0  0  0  0  0  0  0
    0.0580   11.6210   15.2020 H   0  0  0  0  0  0  0  0  0  0  0  0
   -1.9490   10.2960   15.8650 H   0  0  0  0  0  0  0  0  0  0  0  0
   -3.0080    8.7550   14.2250 H   0  0  0  0  0  0  0  0  0  0  0  0
   -6.2790    6.8070   14.2520 H   0  0  0  0  0  0  0  0  0  0  0  0
   -7.1000    5.1640   15.9040 H   0  0  0  0  0  0  0  0  0  0  0  0
   -3.6330    2.6740   15.0590 H   0  0  0  0  0  0  0  0  0  0  0  0
  1  4  1  0  0  0  0
  1  5  1  0  0  0  0
  1  7  1  0  0  0  0
  3 22  1  0  0  0  0
  4 18  1  0  0  0  0
  6  2  1  0  0  0  0
  6 13  2  0  0  0  0
  6 17  1  0  0  0  0
  7  8  2  0  0  0  0
  7 12  1  0  0  0  0
  8  9  1  0  0  0  0
  9 10  2  0  0  0  0
 10 11  1  0  0  0  0
 11 12  2  0  0  0  0
 13 14  1  0  0  0  0
 14 15  2  0  0  0  0
 15 16  1  0  0  0  0
 15 22  1  0  0  0  0
 16 17  2  0  0  0  0
 18  2  1  0  0  0  0
 18 19  2  0  0  0  0
 20 22  2  0  0  0  0
 21 22  2  0  0  0  0
 23  2  1  0  0  0  0
 24  3  1  0  0  0  0
 25  8  1  0  0  0  0
 26  9  1  0  0  0  0
 27 17  1  0  0  0  0
 28  5  1  0  0  0  0
 29  5  1  0  0  0  0
 30  5  1  0  0  0  0
 31  4  1  0  0  0  0
 32  4  1  0  0  0  0
 33 10  1  0  0  0  0
 34 11  1  0  0  0  0
 35 12  1  0  0  0  0
 36 13  1  0  0  0  0
 37 14  1  0  0  0  0
 38 16  1  0  0  0  0
M  CHG  1   3  -1
M  END
>  <deltaG_kcalmol>
-10.9

>  <number_of_rotatable_bonds>
6

>  <charge>
-1

>  <lm5_entropy_jk>
29.891156435929506

$$$$
