4QXI
 OpenBabel11252210453D

 37 38  0  0  0  0  0  0  0  0999 V2000
   14.2050  -11.9460   18.6470 Cl  0  0  0  0  0  0  0  0  0  0  0  0
   17.0800   -7.8480   17.4750 O   0  0  0  0  0  0  0  0  0  0  0  0
   15.3230   -3.8660    9.5460 N   0  0  0  0  0  0  0  0  0  0  0  0
   16.7460   -7.0880   18.6720 C   0  0  0  0  0  0  0  0  0  0  0  0
   15.6700   -6.0190   18.2620 C   0  0  0  0  0  0  0  0  0  0  0  0
   15.4440   -5.8700   17.0490 O   0  5  0  0  0  0  0  0  0  0  0  0
   18.3390   -9.1050   14.1110 O   0  0  0  0  0  0  0  0  0  0  0  0
   15.2770  -11.0350   17.6250 C   0  0  0  0  0  0  0  0  0  0  0  0
   15.6370   -9.7590   18.0370 C   0  0  0  0  0  0  0  0  0  0  0  0
   16.4800  -10.8170   15.5630 C   0  0  0  0  0  0  0  0  0  0  0  0
   17.3200   -4.2580   10.8950 C   0  0  0  0  0  0  0  0  0  0  0  0
   16.4710   -9.0140   17.1840 C   0  0  0  0  0  0  0  0  0  0  0  0
   15.8560   -5.9430   12.6080 C   0  0  0  0  0  0  0  0  0  0  0  0
   16.8090   -9.5000   15.8880 C   0  0  0  0  0  0  0  0  0  0  0  0
   17.9030   -4.9020   11.9810 C   0  0  0  0  0  0  0  0  0  0  0  0
   15.7180  -11.6070   16.4360 C   0  0  0  0  0  0  0  0  0  0  0  0
   15.2180   -5.3120   11.5380 C   0  0  0  0  0  0  0  0  0  0  0  0
   15.9380   -4.4560   10.6790 C   0  0  0  0  0  0  0  0  0  0  0  0
   17.9560   -6.3410   14.0550 C   0  0  0  0  0  0  0  0  0  0  0  0
   17.5170   -8.6350   14.8940 C   0  0  0  0  0  0  0  0  0  0  0  0
   17.1600   -7.2890   14.8660 N   0  0  0  0  0  0  0  0  0  0  0  0
   17.2210   -5.7530   12.8690 C   0  0  0  0  0  0  0  0  0  0  0  0
   15.1250   -5.4460   19.2230 O   0  0  0  0  0  0  0  0  0  0  0  0
   19.2050   -4.6730   12.1860 F   0  0  0  0  0  0  0  0  0  0  0  0
   16.5780   -6.8530   15.6170 H   0  0  0  0  0  0  0  0  0  0  0  0
   14.2930   -3.7650    9.5720 H   0  0  0  0  0  0  0  0  0  0  0  0
   17.7360   -6.6450   18.9110 H   0  0  0  0  0  0  0  0  0  0  0  0
   15.2890   -9.3760   18.9940 H   0  0  0  0  0  0  0  0  0  0  0  0
   16.7830  -11.2510   14.6030 H   0  0  0  0  0  0  0  0  0  0  0  0
   17.8900   -3.5990   10.2430 H   0  0  0  0  0  0  0  0  0  0  0  0
   15.2540   -6.5770   13.2660 H   0  0  0  0  0  0  0  0  0  0  0  0
   15.4620  -12.6340   16.1690 H   0  0  0  0  0  0  0  0  0  0  0  0
   14.1490   -5.4550   11.3810 H   0  0  0  0  0  0  0  0  0  0  0  0
   18.8820   -6.8660   13.6840 H   0  0  0  0  0  0  0  0  0  0  0  0
   18.2610   -5.4880   14.7250 H   0  0  0  0  0  0  0  0  0  0  0  0
   15.7830   -3.0350    9.1720 H   0  0  0  0  0  0  0  0  0  0  0  0
   16.4080   -7.7440   19.4880 H   0  0  0  0  0  0  0  0  0  0  0  0
  1  8  1  0  0  0  0
  2  4  1  0  0  0  0
  2 12  1  0  0  0  0
  3 18  1  0  0  0  0
  3 26  1  0  0  0  0
  3 36  1  0  0  0  0
  4  5  1  0  0  0  0
  4 27  1  0  0  0  0
  4 37  1  0  0  0  0
  5  6  1  0  0  0  0
  5 23  2  0  0  0  0
  7 20  2  0  0  0  0
  8  9  2  0  0  0  0
  8 16  1  0  0  0  0
  9 12  1  0  0  0  0
  9 28  1  0  0  0  0
 10 14  1  0  0  0  0
 10 16  2  0  0  0  0
 10 29  1  0  0  0  0
 11 15  2  0  0  0  0
 11 18  1  0  0  0  0
 11 30  1  0  0  0  0
 12 14  2  0  0  0  0
 13 17  1  0  0  0  0
 13 22  2  0  0  0  0
 13 31  1  0  0  0  0
 14 20  1  0  0  0  0
 15 22  1  0  0  0  0
 15 24  1  0  0  0  0
 16 32  1  0  0  0  0
 17 18  2  0  0  0  0
 17 33  1  0  0  0  0
 19 21  1  0  0  0  0
 19 22  1  0  0  0  0
 19 34  1  0  0  0  0
 19 35  1  0  0  0  0
 20 21  1  0  0  0  0
 21 25  1  0  0  0  0
M  CHG  1   6  -1
M  END
>  <deltaG_kcalmol>
-9.59

>  <charge>
-1

>  <lm5_entropy_jk>
21.38770610149616

>  <number_of_rotatable_bonds>
7

$$$$
