3rah.pdb
 OpenBabel11252210453D

 46 49  0  0  1  0  0  0  0  0999 V2000
   65.6120  154.5580  -50.1220 N   0  0  0  0  0  0  0  0  0  0  0  0
   64.1220  155.2330  -48.3570 N   0  0  0  0  0  0  0  0  0  0  0  0
   67.2710  153.5210  -51.5090 N   0  0  0  0  0  0  0  0  0  0  0  0
   68.5750  149.2850  -45.6150 C   0  0  0  0  0  0  0  0  0  0  0  0
   68.9450  148.9010  -46.9420 C   0  0  0  0  0  0  0  0  0  0  0  0
   68.7680  149.7520  -48.0020 C   0  0  0  0  0  0  0  0  0  0  0  0
   67.8990  151.4630  -46.5260 C   0  0  0  0  0  0  0  0  0  0  0  0
   68.0230  150.5740  -45.4110 C   0  0  0  0  0  0  0  0  0  0  0  0
   68.7370  148.4100  -44.4940 C   0  0  0  0  0  0  0  0  0  0  0  0
   68.3440  148.8070  -43.2400 C   0  0  0  0  0  0  0  0  0  0  0  0
   67.7590  150.0920  -43.0420 C   0  0  0  0  0  0  0  0  0  0  0  0
   67.5980  150.9530  -44.0980 C   0  0  0  0  0  0  0  0  0  0  0  0
   68.2430  151.0690  -47.7970 C   0  0  0  0  0  0  0  0  0  0  0  0
   68.1510  151.9720  -49.0020 C   0  0  0  0  0  0  0  0  0  0  0  0
   67.0330  152.8530  -49.1530 C   0  0  0  0  0  0  0  0  0  0  0  0
   66.6910  153.6410  -50.2800 C   0  0  0  0  0  0  0  0  0  0  0  0
   65.0800  154.4090  -48.8840 C   0  0  0  0  0  0  0  0  0  0  0  0
   63.5600  155.0320  -46.9850 C   0  0  0  0  0  0  0  0  0  0  0  0
   62.5860  153.8360  -46.9000 C   0  0  0  0  0  0  0  0  0  0  0  0
   62.0740  153.7120  -45.4570 C   0  0  0  0  0  0  0  0  0  0  0  0
   61.3840  154.9970  -44.9770 C   0  0  0  0  0  0  0  0  0  0  0  0
   62.3080  156.2140  -45.1390 C   0  0  0  0  0  0  0  0  0  0  0  0
   62.8270  156.3310  -46.5800 C   0  0  0  0  0  0  0  0  0  0  0  0
   69.0410  151.9070  -49.8490 O   0  0  0  0  0  0  0  0  0  0  0  0
   65.8390  153.0450  -47.9120 S   0  0  0  0  0  0  0  0  0  0  0  0
   69.3690  147.9050  -47.0810 H   0  0  0  0  0  0  0  0  0  0  0  0
   69.0370  149.4310  -49.0130 H   0  0  0  0  0  0  0  0  0  0  0  0
   63.4510  155.6760  -49.0230 H   0  0  0  0  0  0  0  0  0  0  0  0
   67.5480  152.4680  -46.2980 H   0  0  0  0  0  0  0  0  0  0  0  0
   67.0260  154.1640  -52.2900 H   0  0  0  0  0  0  0  0  0  0  0  0
   68.1180  152.9520  -51.6100 H   0  0  0  0  0  0  0  0  0  0  0  0
   69.1640  147.4170  -44.6580 H   0  0  0  0  0  0  0  0  0  0  0  0
   68.4620  148.1490  -42.3740 H   0  0  0  0  0  0  0  0  0  0  0  0
   67.4300  150.3630  -42.0360 H   0  0  0  0  0  0  0  0  0  0  0  0
   67.1210  151.9250  -43.9510 H   0  0  0  0  0  0  0  0  0  0  0  0
   64.4150  154.8640  -46.2860 H   0  0  0  0  0  0  0  0  0  0  0  0
   63.0990  152.8910  -47.1810 H   0  0  0  0  0  0  0  0  0  0  0  0
   61.7430  154.0130  -47.6030 H   0  0  0  0  0  0  0  0  0  0  0  0
   62.9420  153.4940  -44.7840 H   0  0  0  0  0  0  0  0  0  0  0  0
   61.3690  152.8610  -45.3770 H   0  0  0  0  0  0  0  0  0  0  0  0
   61.1090  154.8870  -43.9020 H   0  0  0  0  0  0  0  0  0  0  0  0
   60.4580  155.1800  -45.5650 H   0  0  0  0  0  0  0  0  0  0  0  0
   61.7470  157.1440  -44.8800 H   0  0  0  0  0  0  0  0  0  0  0  0
   63.1730  156.1210  -44.4390 H   0  0  0  0  0  0  0  0  0  0  0  0
   61.9690  156.5050  -47.2730 H   0  0  0  0  0  0  0  0  0  0  0  0
   63.5150  157.1980  -46.6390 H   0  0  0  0  0  0  0  0  0  0  0  0
  1 17  2  0  0  0  0
  2 18  1  0  0  0  0
  2 28  1  0  0  0  0
  3 16  1  0  0  0  0
  3 30  1  0  0  0  0
  3 31  1  0  0  0  0
  4  9  1  0  0  0  0
  5  4  2  0  0  0  0
  5 26  1  0  0  0  0
  6  5  1  0  0  0  0
  6 27  1  0  0  0  0
  7  8  2  0  0  0  0
  7 29  1  0  0  0  0
  8  4  1  0  0  0  0
  8 12  1  0  0  0  0
  9 10  2  0  0  0  0
  9 32  1  0  0  0  0
 10 33  1  0  0  0  0
 11 10  1  0  0  0  0
 11 34  1  0  0  0  0
 12 11  2  0  0  0  0
 12 35  1  0  0  0  0
 13  6  2  0  0  0  0
 13  7  1  0  0  0  0
 14 13  1  0  0  0  0
 14 24  2  0  0  0  0
 15 14  1  0  0  0  0
 15 25  1  0  0  0  0
 16  1  1  0  0  0  0
 16 15  2  0  0  0  0
 17  2  1  0  0  0  0
 17 25  1  0  0  0  0
 18 23  1  0  0  0  0
 18 36  1  0  0  0  0
 19 18  1  0  0  0  0
 19 20  1  0  0  0  0
 19 37  1  0  0  0  0
 19 38  1  0  0  0  0
 20 21  1  0  0  0  0
 20 39  1  0  0  0  0
 20 40  1  0  0  0  0
 21 41  1  0  0  0  0
 21 42  1  0  0  0  0
 22 21  1  0  0  0  0
 22 43  1  0  0  0  0
 22 44  1  0  0  0  0
 23 22  1  0  0  0  0
 23 45  1  0  0  0  0
 23 46  1  0  0  0  0
M  END
>  <lm5_entropy_jk>
20.76925268888156

>  <number_of_rotatable_bonds>
4

>  <IC50_NM>
12000

>  <charge>
0

$$$$
