3QXP
 OpenBabel11252210453D

 41 43  0  0  0  0  0  0  0  0999 V2000
   65.9640  154.3200  -50.5700 N   0  0  0  0  0  0  0  0  0  0  0  0
   64.5330  154.7590  -48.8110 N   0  0  0  0  0  0  0  0  0  0  0  0
   67.3840  153.3880  -52.1240 N   0  0  0  0  0  0  0  0  0  0  0  0
   61.9810  153.4430  -42.9460 N   0  0  0  0  0  0  0  0  0  0  0  0
   71.1690  150.6160  -49.2580 N   0  3  0  0  0  0  0  0  0  0  0  0
   67.4970  152.7270  -49.8420 C   0  0  0  0  0  0  0  0  0  0  0  0
   67.0150  153.4920  -50.8550 C   0  0  0  0  0  0  0  0  0  0  0  0
   65.6590  154.1780  -49.2970 C   0  0  0  0  0  0  0  0  0  0  0  0
   63.8150  154.6270  -47.6450 C   0  0  0  0  0  0  0  0  0  0  0  0
   68.4760  151.6420  -50.0240 C   0  0  0  0  0  0  0  0  0  0  0  0
   68.6670  150.6450  -48.8890 C   0  0  0  0  0  0  0  0  0  0  0  0
   69.9410  150.0930  -48.5930 C   0  0  0  0  0  0  0  0  0  0  0  0
   70.0570  149.0570  -47.6360 C   0  0  0  0  0  0  0  0  0  0  0  0
   68.9300  148.6030  -46.9360 C   0  0  0  0  0  0  0  0  0  0  0  0
   67.6740  149.1560  -47.2020 C   0  0  0  0  0  0  0  0  0  0  0  0
   67.5450  150.1430  -48.1890 C   0  0  0  0  0  0  0  0  0  0  0  0
   63.8090  153.4370  -46.9180 C   0  0  0  0  0  0  0  0  0  0  0  0
   63.0350  153.3090  -45.7630 C   0  0  0  0  0  0  0  0  0  0  0  0
   62.2530  154.4000  -45.3470 C   0  0  0  0  0  0  0  0  0  0  0  0
   62.2340  155.6020  -46.0680 C   0  0  0  0  0  0  0  0  0  0  0  0
   63.0180  155.6890  -47.2200 C   0  0  0  0  0  0  0  0  0  0  0  0
   69.0440  151.4870  -51.0930 O   0  0  0  0  0  0  0  0  0  0  0  0
   60.1400  153.2090  -44.3020 O   0  0  0  0  0  0  0  0  0  0  0  0
   60.8470  155.4200  -43.2760 O   0  0  0  0  0  0  0  0  0  0  0  0
   72.0910  149.8110  -49.3930 O   0  5  0  0  0  0  0  0  0  0  0  0
   71.3660  151.8240  -49.1540 O   0  0  0  0  0  0  0  0  0  0  0  0
   66.7600  153.2030  -48.3450 S   0  0  0  0  0  0  0  0  0  0  0  0
   61.1540  154.2000  -44.0080 S   0  0  0  0  0  0  0  0  0  0  0  0
   64.0680  155.3530  -49.4890 H   0  0  0  0  0  0  0  0  0  0  0  0
   67.1530  154.1280  -52.7770 H   0  0  0  0  0  0  0  0  0  0  0  0
   68.2010  152.8090  -52.2680 H   0  0  0  0  0  0  0  0  0  0  0  0
   61.3700  152.6660  -43.2200 H   0  0  0  0  0  0  0  0  0  0  0  0
   61.4170  154.0460  -42.3540 H   0  0  0  0  0  0  0  0  0  0  0  0
   71.0220  148.6000  -47.4270 H   0  0  0  0  0  0  0  0  0  0  0  0
   69.0280  147.8160  -46.1870 H   0  0  0  0  0  0  0  0  0  0  0  0
   66.7980  148.8110  -46.6530 H   0  0  0  0  0  0  0  0  0  0  0  0
   66.5540  150.5170  -48.4220 H   0  0  0  0  0  0  0  0  0  0  0  0
   64.3730  152.5790  -47.2630 H   0  0  0  0  0  0  0  0  0  0  0  0
   63.0460  152.3600  -45.2210 H   0  0  0  0  0  0  0  0  0  0  0  0
   61.6030  156.4520  -45.7800 H   0  0  0  0  0  0  0  0  0  0  0  0
   62.9830  156.5960  -47.8100 H   0  0  0  0  0  0  0  0  0  0  0  0
  1  8  2  0  0  0  0
  2  9  1  0  0  0  0
  2 29  1  0  0  0  0
  3  7  1  0  0  0  0
  3 30  1  0  0  0  0
  3 31  1  0  0  0  0
  4 32  1  0  0  0  0
  4 33  1  0  0  0  0
  5 12  1  0  0  0  0
  6 27  1  0  0  0  0
  7  1  1  0  0  0  0
  7  6  2  0  0  0  0
  8  2  1  0  0  0  0
  8 27  1  0  0  0  0
  9 21  2  0  0  0  0
  9 17  1  0  0  0  0
 10  6  1  0  0  0  0
 10 11  1  0  0  0  0
 11 16  2  0  0  0  0
 11 12  1  0  0  0  0
 12 13  2  0  0  0  0
 13 14  1  0  0  0  0
 13 34  1  0  0  0  0
 14 35  1  0  0  0  0
 15 14  2  0  0  0  0
 15 36  1  0  0  0  0
 16 15  1  0  0  0  0
 16 37  1  0  0  0  0
 17 18  2  0  0  0  0
 17 38  1  0  0  0  0
 18 19  1  0  0  0  0
 18 39  1  0  0  0  0
 19 28  1  0  0  0  0
 20 19  2  0  0  0  0
 20 40  1  0  0  0  0
 21 20  1  0  0  0  0
 21 41  1  0  0  0  0
 22 10  2  0  0  0  0
 23 28  2  0  0  0  0
 25  5  1  0  0  0  0
 26  5  2  0  0  0  0
 28 24  2  0  0  0  0
 28  4  1  0  0  0  0
M  CHG  2   5   1  25  -1
M  END
>  <lm5_entropy_jk>
23.933690845995674

>  <number_of_rotatable_bonds>
6

>  <IC50_NM>
20

>  <charge>
0

$$$$
