model16f
 OpenBabel11252210453D

 93 97  0  0  1  0  0  0  0  0999 V2000
    8.4010   -5.7410   17.9370 C   0  0  0  0  0  0  0  0  0  0  0  0
    1.9580    5.0970    5.5320 C   0  0  0  0  0  0  0  0  0  0  0  0
    7.8370   -4.5320   17.5500 O   0  0  0  0  0  0  0  0  0  0  0  0
    7.6190   -6.6070   18.7330 C   0  0  0  0  0  0  0  0  0  0  0  0
    0.9990    5.7880    5.2490 O   0  0  0  0  0  0  0  0  0  0  0  0
    6.8290   -3.0700   14.4180 O   0  0  0  0  0  0  0  0  0  0  0  0
    8.0810   -7.8900   19.0520 C   0  0  0  0  0  0  0  0  0  0  0  0
    5.7320   -3.2700   16.3900 N   0  0  0  0  0  0  0  0  0  0  0  0
    9.3460   -8.3090   18.6230 C   0  0  0  0  0  0  0  0  0  0  0  0
    7.0990    0.9840   12.4930 C   0  0  0  0  0  0  0  0  0  0  0  0
    4.3730    0.5610   13.6250 N   0  0  0  0  0  0  0  0  0  0  0  0
    4.9980    0.8960   16.3240 O   0  0  0  0  0  0  0  0  0  0  0  0
   10.1540   -7.4280   17.8920 C   0  0  0  0  0  0  0  0  0  0  0  0
    6.8250    2.2480   11.9490 C   0  0  0  0  0  0  0  0  0  0  0  0
    3.6750   -1.0820   12.2180 O   0  0  0  0  0  0  0  0  0  0  0  0
    9.7090   -6.1440   17.5580 C   0  0  0  0  0  0  0  0  0  0  0  0
    7.1370    2.5270   10.6080 C   0  0  0  0  0  0  0  0  0  0  0  0
    6.2530   -6.1860   19.2230 C   0  0  0  0  0  0  0  0  0  0  0  0
    7.7310    1.5350    9.8100 C   0  0  0  0  0  0  0  0  0  0  0  0
   10.7070   -5.2340   16.8660 C   0  0  0  0  0  0  0  0  0  0  0  0
    8.0090    0.2690   10.3530 C   0  0  0  0  0  0  0  0  0  0  0  0
    7.6860   -0.0050   11.6930 C   0  0  0  0  0  0  0  0  0  0  0  0
    8.0870   -3.9070   16.2600 C   0  0  0  0  0  0  0  0  0  0  0  0
    6.8390   -3.3700   15.5990 C   0  0  0  0  0  0  0  0  0  0  0  0
    4.4310   -2.8400   15.9170 C   0  0  1  0  0  0  0  0  0  0  0  0
    3.0450    4.9140    4.5330 C   0  0  0  0  0  0  0  0  0  0  0  0
    3.0280   -7.0170   15.1030 C   0  0  0  0  0  0  0  0  0  0  0  0
    2.9720   -7.8480   16.2320 C   0  0  0  0  0  0  0  0  0  0  0  0
    3.0280   -7.2880   17.5170 C   0  0  0  0  0  0  0  0  0  0  0  0
    3.1530   -5.8960   17.6620 C   0  0  0  0  0  0  0  0  0  0  0  0
    3.2330   -5.0620   16.5370 C   0  0  0  0  0  0  0  0  0  0  0  0
    3.1430   -5.6250   15.2570 C   0  0  0  0  0  0  0  0  0  0  0  0
    3.3330   -3.5610   16.7260 C   0  0  0  0  0  0  0  0  0  0  0  0
    4.2410   -1.3360   16.1590 C   0  0  0  0  0  0  0  0  0  0  0  0
    5.3620   -0.3520   15.7550 C   0  0  1  0  0  0  0  0  0  0  0  0
    5.5400   -0.1240   14.2200 C   0  0  2  0  0  0  0  0  0  0  0  0
    3.5010    0.0210   12.7080 C   0  0  0  0  0  0  0  0  0  0  0  0
    2.2660    0.9140   12.4040 C   0  0  1  0  0  0  0  0  0  0  0  0
    2.5490    2.2870   12.7700 O   0  0  0  0  0  0  0  0  0  0  0  0
    6.8220    0.7120   13.9540 C   0  0  0  0  0  0  0  0  0  0  0  0
    2.7920    3.0990   11.7060 C   0  0  0  0  0  0  0  0  0  0  0  0
    3.0830    4.2770   11.7730 O   0  0  0  0  0  0  0  0  0  0  0  0
    2.3070    2.4600   10.6050 N   0  0  0  0  0  0  0  0  0  0  0  0
    1.8860    1.0710   10.9090 C   0  0  0  0  0  0  0  0  0  0  0  0
    2.2300    3.0780    9.3420 C   0  0  0  0  0  0  0  0  0  0  0  0
    3.3910    3.4430    8.6560 C   0  0  0  0  0  0  0  0  0  0  0  0
    3.3260    4.0770    7.4060 C   0  0  0  0  0  0  0  0  0  0  0  0
    2.0690    4.3970    6.8520 C   0  0  0  0  0  0  0  0  0  0  0  0
    0.9010    4.0950    7.5800 C   0  0  0  0  0  0  0  0  0  0  0  0
    0.9910    3.4230    8.8100 C   0  0  0  0  0  0  0  0  0  0  0  0
    5.8350   -6.8640   19.9740 H   0  0  0  0  0  0  0  0  0  0  0  0
    5.5730   -6.1540   18.3700 H   0  0  0  0  0  0  0  0  0  0  0  0
    6.2730   -5.1790   19.6450 H   0  0  0  0  0  0  0  0  0  0  0  0
    5.8590   -3.5450   17.3600 H   0  0  0  0  0  0  0  0  0  0  0  0
    4.1570    1.5110   13.9120 H   0  0  0  0  0  0  0  0  0  0  0  0
    5.1320    1.5340   15.5960 H   0  0  0  0  0  0  0  0  0  0  0  0
    6.3730    3.0170   12.5720 H   0  0  0  0  0  0  0  0  0  0  0  0
    7.4560   -8.5650   19.6340 H   0  0  0  0  0  0  0  0  0  0  0  0
    6.9280    3.5130   10.1910 H   0  0  0  0  0  0  0  0  0  0  0  0
    7.9760    1.7530    8.7710 H   0  0  0  0  0  0  0  0  0  0  0  0
    9.7150   -9.3030   18.8820 H   0  0  0  0  0  0  0  0  0  0  0  0
    8.4730   -0.4970    9.7370 H   0  0  0  0  0  0  0  0  0  0  0  0
   11.1500   -7.7480   17.6010 H   0  0  0  0  0  0  0  0  0  0  0  0
    7.9020   -0.9790   12.1210 H   0  0  0  0  0  0  0  0  0  0  0  0
    8.7820   -3.0680   16.3490 H   0  0  0  0  0  0  0  0  0  0  0  0
    4.3340   -3.0690   14.8410 H   0  0  0  0  0  0  0  0  0  0  0  0
    8.4710   -4.6350   15.5390 H   0  0  0  0  0  0  0  0  0  0  0  0
   11.7280   -5.5550   17.0800 H   0  0  0  0  0  0  0  0  0  0  0  0
   10.6250   -4.2050   17.2360 H   0  0  0  0  0  0  0  0  0  0  0  0
   10.5830   -5.2490   15.7770 H   0  0  0  0  0  0  0  0  0  0  0  0
    3.8930    5.5540    4.7950 H   0  0  0  0  0  0  0  0  0  0  0  0
    4.2500    4.3310    6.8850 H   0  0  0  0  0  0  0  0  0  0  0  0
    2.9900   -7.4520   14.1090 H   0  0  0  0  0  0  0  0  0  0  0  0
    2.8840   -8.9280   16.1140 H   0  0  0  0  0  0  0  0  0  0  0  0
    2.9780   -7.9290   18.3980 H   0  0  0  0  0  0  0  0  0  0  0  0
    3.1940   -5.4650   18.6600 H   0  0  0  0  0  0  0  0  0  0  0  0
    3.1580   -4.9840   14.3820 H   0  0  0  0  0  0  0  0  0  0  0  0
    2.3600   -3.1230   16.4900 H   0  0  0  0  0  0  0  0  0  0  0  0
    3.4890   -3.3470   17.7900 H   0  0  0  0  0  0  0  0  0  0  0  0
    4.1340   -1.2130   17.2400 H   0  0  0  0  0  0  0  0  0  0  0  0
    3.2960   -1.0080   15.7150 H   0  0  0  0  0  0  0  0  0  0  0  0
    6.3200   -0.6920   16.1860 H   0  0  0  0  0  0  0  0  0  0  0  0
    5.6620   -1.1070   13.7490 H   0  0  0  0  0  0  0  0  0  0  0  0
    1.4410    0.4950   13.0000 H   0  0  0  0  0  0  0  0  0  0  0  0
    6.7820    1.6620   14.4970 H   0  0  0  0  0  0  0  0  0  0  0  0
    7.6840    0.1950   14.3940 H   0  0  0  0  0  0  0  0  0  0  0  0
    0.8040    0.9420   10.7470 H   0  0  0  0  0  0  0  0  0  0  0  0
    2.4240    0.3330   10.2980 H   0  0  0  0  0  0  0  0  0  0  0  0
    4.3560    3.1940    9.0900 H   0  0  0  0  0  0  0  0  0  0  0  0
    2.6730    5.1940    3.5420 H   0  0  0  0  0  0  0  0  0  0  0  0
   -0.0780    4.3830    7.1950 H   0  0  0  0  0  0  0  0  0  0  0  0
    0.0890    3.2050    9.3740 H   0  0  0  0  0  0  0  0  0  0  0  0
    3.3570    3.8670    4.5160 H   0  0  0  0  0  0  0  0  0  0  0  0
  1  3  1  0  0  0  0
  1  4  2  0  0  0  0
  1 16  1  0  0  0  0
  2  5  2  0  0  0  0
  2 26  1  0  0  0  0
  2 48  1  0  0  0  0
  3 23  1  0  0  0  0
  4  7  1  0  0  0  0
  4 18  1  0  0  0  0
  6 24  2  0  0  0  0
  7  9  2  0  0  0  0
  7 58  1  0  0  0  0
  8 24  1  0  0  0  0
  8 25  1  0  0  0  0
  8 54  1  0  0  0  0
  9 13  1  0  0  0  0
  9 61  1  0  0  0  0
 10 14  2  0  0  0  0
 10 22  1  0  0  0  0
 10 40  1  0  0  0  0
 11 36  1  0  0  0  0
 11 37  1  0  0  0  0
 11 55  1  0  0  0  0
 12 35  1  0  0  0  0
 12 56  1  0  0  0  0
 13 16  2  0  0  0  0
 13 63  1  0  0  0  0
 14 17  1  0  0  0  0
 14 57  1  0  0  0  0
 15 37  2  0  0  0  0
 16 20  1  0  0  0  0
 17 19  2  0  0  0  0
 17 59  1  0  0  0  0
 18 51  1  0  0  0  0
 18 52  1  0  0  0  0
 18 53  1  0  0  0  0
 19 21  1  0  0  0  0
 19 60  1  0  0  0  0
 20 68  1  0  0  0  0
 20 69  1  0  0  0  0
 20 70  1  0  0  0  0
 21 22  2  0  0  0  0
 21 62  1  0  0  0  0
 22 64  1  0  0  0  0
 23 24  1  0  0  0  0
 23 65  1  0  0  0  0
 23 67  1  0  0  0  0
 25 33  1  0  0  0  0
 25 34  1  0  0  0  0
 25 66  1  6  0  0  0
 26 71  1  0  0  0  0
 26 90  1  0  0  0  0
 26 93  1  0  0  0  0
 27 28  2  0  0  0  0
 27 32  1  0  0  0  0
 27 73  1  0  0  0  0
 28 29  1  0  0  0  0
 28 74  1  0  0  0  0
 29 30  2  0  0  0  0
 29 75  1  0  0  0  0
 30 31  1  0  0  0  0
 30 76  1  0  0  0  0
 31 32  2  0  0  0  0
 31 33  1  0  0  0  0
 32 77  1  0  0  0  0
 33 78  1  0  0  0  0
 33 79  1  0  0  0  0
 34 35  1  0  0  0  0
 34 80  1  0  0  0  0
 34 81  1  0  0  0  0
 35 36  1  0  0  0  0
 35 82  1  1  0  0  0
 36 40  1  0  0  0  0
 36 83  1  6  0  0  0
 37 38  1  0  0  0  0
 38 39  1  0  0  0  0
 38 44  1  0  0  0  0
 38 84  1  6  0  0  0
 39 41  1  0  0  0  0
 40 85  1  0  0  0  0
 40 86  1  0  0  0  0
 41 42  2  0  0  0  0
 41 43  1  0  0  0  0
 43 44  1  0  0  0  0
 43 45  1  0  0  0  0
 44 87  1  0  0  0  0
 44 88  1  0  0  0  0
 45 46  2  0  0  0  0
 45 50  1  0  0  0  0
 46 47  1  0  0  0  0
 46 89  1  0  0  0  0
 47 48  2  0  0  0  0
 47 72  1  0  0  0  0
 48 49  1  0  0  0  0
 49 50  2  0  0  0  0
 49 91  1  0  0  0  0
 50 92  1  0  0  0  0
M  END
>  <charge>
0

>  <KI_NM>
39.87

>  <number_of_rotatable_bonds>
17

>  <lm5_entropy_jk>
43.769413455775634

>  <ligand_crystal_conformation>
A

$$$$
