4LB3
 OpenBabel11252210453D

 35 36  0  0  0  0  0  0  0  0999 V2000
   14.1290  -12.0060   18.9860 Cl  0  0  0  0  0  0  0  0  0  0  0  0
   17.8580   -6.1240   13.2390 C   0  0  0  0  0  0  0  0  0  0  0  0
   18.4960   -5.0890   12.5280 C   0  0  0  0  0  0  0  0  0  0  0  0
   16.5480   -6.4390   12.8560 C   0  0  0  0  0  0  0  0  0  0  0  0
   17.8900   -4.3660   11.4980 C   0  0  0  0  0  0  0  0  0  0  0  0
   15.9030   -5.7370   11.8290 C   0  0  0  0  0  0  0  0  0  0  0  0
   16.5770   -4.7060   11.1850 C   0  0  0  0  0  0  0  0  0  0  0  0
   18.5840   -6.8360   14.3600 C   0  0  0  0  0  0  0  0  0  0  0  0
   17.6810   -7.6160   15.2240 N   0  0  0  0  0  0  0  0  0  0  0  0
   17.6490   -9.0060   15.1630 C   0  0  0  0  0  0  0  0  0  0  0  0
   16.8040   -9.7130   16.1660 C   0  0  0  0  0  0  0  0  0  0  0  0
   16.3560   -9.1190   17.3810 C   0  0  0  0  0  0  0  0  0  0  0  0
   16.4590  -11.0450   15.9010 C   0  0  0  0  0  0  0  0  0  0  0  0
   15.4820   -9.8190   18.2370 C   0  0  0  0  0  0  0  0  0  0  0  0
   15.6490  -11.7750   16.7740 C   0  0  0  0  0  0  0  0  0  0  0  0
   15.1710  -11.1290   17.9130 C   0  0  0  0  0  0  0  0  0  0  0  0
   18.2790   -9.6230   14.3060 O   0  0  0  0  0  0  0  0  0  0  0  0
   16.8740   -7.9010   17.6190 O   0  0  0  0  0  0  0  0  0  0  0  0
   16.5800   -7.1320   18.8270 C   0  0  0  0  0  0  0  0  0  0  0  0
   15.5360   -6.0080   18.4720 C   0  0  0  0  0  0  0  0  0  0  0  0
   15.0200   -5.4660   19.4700 O   0  0  0  0  0  0  0  0  0  0  0  0
   15.2970   -5.7740   17.2810 O   0  5  0  0  0  0  0  0  0  0  0  0
   19.7480   -4.7640   12.8540 F   0  0  0  0  0  0  0  0  0  0  0  0
   15.5180   -3.5300    9.7750 I   0  0  0  0  0  0  0  0  0  0  0  0
   17.5930   -6.7250   19.0410 H   0  0  0  0  0  0  0  0  0  0  0  0
   15.9990   -7.2350   13.3700 H   0  0  0  0  0  0  0  0  0  0  0  0
   18.4010   -3.5420   10.9930 H   0  0  0  0  0  0  0  0  0  0  0  0
   14.8710   -5.9880   11.5600 H   0  0  0  0  0  0  0  0  0  0  0  0
   19.1090   -6.0790   15.0110 H   0  0  0  0  0  0  0  0  0  0  0  0
   17.1520   -7.0750   15.9230 H   0  0  0  0  0  0  0  0  0  0  0  0
   16.8170  -11.5370   14.9870 H   0  0  0  0  0  0  0  0  0  0  0  0
   15.0880   -9.3710   19.1460 H   0  0  0  0  0  0  0  0  0  0  0  0
   15.3970  -12.8150   16.5610 H   0  0  0  0  0  0  0  0  0  0  0  0
   16.2430   -7.7860   19.6450 H   0  0  0  0  0  0  0  0  0  0  0  0
   19.3610   -7.5290   13.9240 H   0  0  0  0  0  0  0  0  0  0  0  0
  1 16  1  0  0  0  0
  2  3  2  0  0  0  0
  2  4  1  0  0  0  0
  2  8  1  0  0  0  0
  3  5  1  0  0  0  0
  3 23  1  0  0  0  0
  4  6  2  0  0  0  0
  4 26  1  0  0  0  0
  5  7  2  0  0  0  0
  5 27  1  0  0  0  0
  6  7  1  0  0  0  0
  6 28  1  0  0  0  0
  7 24  1  0  0  0  0
  8  9  1  0  0  0  0
  8 29  1  0  0  0  0
  8 35  1  0  0  0  0
  9 10  1  0  0  0  0
  9 30  1  0  0  0  0
 10 11  1  0  0  0  0
 10 17  2  0  0  0  0
 11 12  2  0  0  0  0
 11 13  1  0  0  0  0
 12 14  1  0  0  0  0
 12 18  1  0  0  0  0
 13 15  2  0  0  0  0
 13 31  1  0  0  0  0
 14 16  2  0  0  0  0
 14 32  1  0  0  0  0
 15 16  1  0  0  0  0
 15 33  1  0  0  0  0
 18 19  1  0  0  0  0
 19 20  1  0  0  0  0
 19 25  1  0  0  0  0
 19 34  1  0  0  0  0
 20 21  2  0  0  0  0
 20 22  1  0  0  0  0
M  CHG  1  22  -1
M  END
>  <deltaG_kcalmol>
-10.73

>  <charge>
-1

>  <lm5_entropy_jk>
25.63780735381752

>  <number_of_rotatable_bonds>
7

$$$$
