5MNG
 OpenBabel11252210453D

 18 18  0  0  0  0  0  0  0  0999 V2000
   -2.7760   14.2230   13.9710 N   0  3  0  0  0  0  0  0  0  0  0  0
   -1.5810   12.4630   14.8990 N   0  0  0  0  0  0  0  0  0  0  0  0
   -1.9990   13.7550   14.9890 C   0  0  0  0  0  0  0  0  0  0  0  0
   -1.5670   14.6200   16.1030 C   0  0  0  0  0  0  0  0  0  0  0  0
   -1.6220   16.0240   15.9910 C   0  0  0  0  0  0  0  0  0  0  0  0
   -1.1910   16.8320   17.0430 C   0  0  0  0  0  0  0  0  0  0  0  0
   -0.7110   16.2550   18.2230 C   0  0  0  0  0  0  0  0  0  0  0  0
   -0.6810   14.8610   18.3540 C   0  0  0  0  0  0  0  0  0  0  0  0
   -1.1070   14.0460   17.3070 C   0  0  0  0  0  0  0  0  0  0  0  0
   -2.0000   16.5080   15.0890 H   0  0  0  0  0  0  0  0  0  0  0  0
   -1.2410   17.9250   16.9360 H   0  0  0  0  0  0  0  0  0  0  0  0
   -0.3610   16.8970   19.0410 H   0  0  0  0  0  0  0  0  0  0  0  0
   -0.3270   14.4060   19.2860 H   0  0  0  0  0  0  0  0  0  0  0  0
   -1.0920   12.9610   17.4410 H   0  0  0  0  0  0  0  0  0  0  0  0
   -3.1290   13.5610   13.2330 H   0  0  0  0  0  0  0  0  0  0  0  0
   -3.2150   15.1640   14.0010 H   0  0  0  0  0  0  0  0  0  0  0  0
   -0.9120   12.0430   15.5810 H   0  0  0  0  0  0  0  0  0  0  0  0
   -2.0440   11.7890   14.2450 H   0  0  0  0  0  0  0  0  0  0  0  0
  1  3  2  0  0  0  0
  1 15  1  0  0  0  0
  1 16  1  0  0  0  0
  2  3  1  0  0  0  0
  2 17  1  0  0  0  0
  2 18  1  0  0  0  0
  3  4  1  0  0  0  0
  4  5  2  0  0  0  0
  4  9  1  0  0  0  0
  5  6  1  0  0  0  0
  5 10  1  0  0  0  0
  6  7  2  0  0  0  0
  6 11  1  0  0  0  0
  7  8  1  0  0  0  0
  7 12  1  0  0  0  0
  8  9  2  0  0  0  0
  8 13  1  0  0  0  0
  9 14  1  0  0  0  0
M  CHG  1   1   1
M  END
>  <number_of_rotatable_bonds>
1

>  <lm5_entropy_jk>
14.133140156892344

>  <deltaG_kcalmol>
-6.40

>  <charge>
1

$$$$
