model22
 OpenBabel11252210453D

 84 86  0  0  1  0  0  0  0  0999 V2000
   14.0720   12.2450    7.5360 C   0  0  0  0  0  0  0  0  0  0  0  0
    7.2650   17.9460    9.7410 C   0  0  2  0  0  0  0  0  0  0  0  0
   13.1050   12.1500    8.5460 N   0  0  0  0  0  0  0  0  0  0  0  0
    8.4010   18.3950    8.9100 N   0  0  0  0  0  0  0  0  0  0  0  0
    5.7540   19.2340    8.3150 O   0  0  0  0  0  0  0  0  0  0  0  0
   14.8040   11.2310    6.8830 C   0  0  0  0  0  0  0  0  0  0  0  0
   13.0440   15.8440    8.0530 C   0  0  0  0  0  0  0  0  0  0  0  0
   11.7290   15.9040    5.9170 N   0  0  0  0  0  0  0  0  0  0  0  0
    8.3080   16.5550    7.5620 O   0  0  0  0  0  0  0  0  0  0  0  0
   15.7320   11.6250    5.9370 C   0  0  0  0  0  0  0  0  0  0  0  0
   11.6980   16.2100    7.3560 C   0  0  2  0  0  0  0  0  0  0  0  0
    4.8810   17.3980    9.3590 N   0  0  0  0  0  0  0  0  0  0  0  0
   10.4250   13.9980    5.9590 O   0  0  0  0  0  0  0  0  0  0  0  0
   15.9540   12.9970    5.6510 C   0  0  0  0  0  0  0  0  0  0  0  0
   11.3720   17.7330    7.5700 C   0  0  1  0  0  0  0  0  0  0  0  0
   12.3140   18.5360    6.8200 O   0  0  0  0  0  0  0  0  0  0  0  0
   15.2310   13.9930    6.2860 C   0  0  0  0  0  0  0  0  0  0  0  0
   10.0000   18.1890    7.0250 C   0  0  0  0  0  0  0  0  0  0  0  0
   14.2390   13.6400    7.2200 C   0  0  0  0  0  0  0  0  0  0  0  0
    8.8330   17.6290    7.8100 C   0  0  0  0  0  0  0  0  0  0  0  0
   11.0660   14.8160    5.3170 C   0  0  0  0  0  0  0  0  0  0  0  0
   13.3140   14.3800    8.0520 C   0  0  0  0  0  0  0  0  0  0  0  0
   12.6800   13.4530    8.8710 C   0  0  0  0  0  0  0  0  0  0  0  0
   11.1640   14.8240    3.7960 C   0  0  0  0  0  0  0  0  0  0  0  0
    3.5450   17.4700    8.7130 C   0  0  0  0  0  0  0  0  0  0  0  0
    9.7930   15.1400    3.1680 C   0  0  0  0  0  0  0  0  0  0  0  0
    9.0980   16.3260    3.8530 C   0  0  0  0  0  0  0  0  0  0  0  0
    7.6960   16.6140    3.2940 C   0  0  0  0  0  0  0  0  0  0  0  0
    6.8120   17.2580    4.3780 C   0  0  0  0  0  0  0  0  0  0  0  0
    5.3660   17.4530    3.9010 C   0  0  0  0  0  0  0  0  0  0  0  0
    3.1140   16.1030    8.1420 C   0  0  0  0  0  0  0  0  0  0  0  0
    5.9220   18.2680    9.0440 C   0  0  0  0  0  0  0  0  0  0  0  0
    7.3450   18.5450   11.1770 C   0  0  0  0  0  0  0  0  0  0  0  0
    2.8850   16.1180    6.6230 C   0  0  0  0  0  0  0  0  0  0  0  0
    4.1830   16.2020    5.8000 C   0  0  0  0  0  0  0  0  0  0  0  0
    4.3410   17.5330    5.0450 C   0  0  0  0  0  0  0  0  0  0  0  0
    6.4890   17.7230   12.1500 C   0  0  0  0  0  0  0  0  0  0  0  0
    6.9770   20.0290   11.2310 C   0  0  0  0  0  0  0  0  0  0  0  0
    7.5810   20.6080   10.5020 H   0  0  0  0  0  0  0  0  0  0  0  0
    8.6980   19.3790    9.0140 H   0  0  0  0  0  0  0  0  0  0  0  0
    7.3550   16.8350    9.8640 H   0  0  0  0  0  0  0  0  0  0  0  0
   12.9880   16.2130    9.1110 H   0  0  0  0  0  0  0  0  0  0  0  0
   10.8750   15.6230    7.8430 H   0  0  0  0  0  0  0  0  0  0  0  0
   11.4640   17.9840    8.6530 H   0  0  0  0  0  0  0  0  0  0  0  0
    9.9040   17.8560    5.9580 H   0  0  0  0  0  0  0  0  0  0  0  0
   11.9940   13.6340    9.6770 H   0  0  0  0  0  0  0  0  0  0  0  0
   12.8510   11.3150    9.0510 H   0  0  0  0  0  0  0  0  0  0  0  0
   14.6530   10.1810    7.1270 H   0  0  0  0  0  0  0  0  0  0  0  0
   16.3220   10.8740    5.4030 H   0  0  0  0  0  0  0  0  0  0  0  0
   16.7220   13.2600    4.9200 H   0  0  0  0  0  0  0  0  0  0  0  0
   11.5050   13.8220    3.4400 H   0  0  0  0  0  0  0  0  0  0  0  0
   15.4470   15.0390    6.0920 H   0  0  0  0  0  0  0  0  0  0  0  0
    3.5670   18.2450    7.9020 H   0  0  0  0  0  0  0  0  0  0  0  0
    9.1520   14.2330    3.2330 H   0  0  0  0  0  0  0  0  0  0  0  0
    9.7360   17.2320    3.7290 H   0  0  0  0  0  0  0  0  0  0  0  0
    7.2200   15.6690    2.9470 H   0  0  0  0  0  0  0  0  0  0  0  0
    7.2410   18.2460    4.6580 H   0  0  0  0  0  0  0  0  0  0  0  0
    5.0820   16.6160    3.2210 H   0  0  0  0  0  0  0  0  0  0  0  0
    2.1600   15.8010    8.6420 H   0  0  0  0  0  0  0  0  0  0  0  0
   12.4880   16.3900    5.4110 H   0  0  0  0  0  0  0  0  0  0  0  0
    5.0620   16.5210    9.8780 H   0  0  0  0  0  0  0  0  0  0  0  0
    8.4070   18.4140   11.5050 H   0  0  0  0  0  0  0  0  0  0  0  0
    2.2060   16.9670    6.3690 H   0  0  0  0  0  0  0  0  0  0  0  0
    4.1890   15.3700    5.0600 H   0  0  0  0  0  0  0  0  0  0  0  0
    3.3610   17.8260    4.6000 H   0  0  0  0  0  0  0  0  0  0  0  0
   12.9110   19.0360    7.4870 H   0  0  0  0  0  0  0  0  0  0  0  0
    6.7280   16.6410   12.0610 H   0  0  0  0  0  0  0  0  0  0  0  0
    7.1520   20.4270   12.2550 H   0  0  0  0  0  0  0  0  0  0  0  0
   13.8740   16.3940    7.5500 H   0  0  0  0  0  0  0  0  0  0  0  0
    9.9850   19.3050    7.0360 H   0  0  0  0  0  0  0  0  0  0  0  0
   11.9010   15.5860    3.4410 H   0  0  0  0  0  0  0  0  0  0  0  0
    2.8140   17.7890    9.5050 H   0  0  0  0  0  0  0  0  0  0  0  0
    9.9570   15.3860    2.0910 H   0  0  0  0  0  0  0  0  0  0  0  0
    8.9950   16.1030    4.9440 H   0  0  0  0  0  0  0  0  0  0  0  0
    7.7750   17.2950    2.4170 H   0  0  0  0  0  0  0  0  0  0  0  0
    6.8200   16.6030    5.2810 H   0  0  0  0  0  0  0  0  0  0  0  0
    5.3110   18.4020    3.3210 H   0  0  0  0  0  0  0  0  0  0  0  0
    3.8780   15.3260    8.3910 H   0  0  0  0  0  0  0  0  0  0  0  0
    2.3490   15.1740    6.3520 H   0  0  0  0  0  0  0  0  0  0  0  0
    5.0590   16.0760    6.4780 H   0  0  0  0  0  0  0  0  0  0  0  0
    4.6490   18.3230    5.7670 H   0  0  0  0  0  0  0  0  0  0  0  0
    5.4010   17.8660   11.9590 H   0  0  0  0  0  0  0  0  0  0  0  0
    5.8990   20.1740   10.9910 H   0  0  0  0  0  0  0  0  0  0  0  0
    6.6950   18.0500   13.1950 H   0  0  0  0  0  0  0  0  0  0  0  0
  1  3  1  0  0  0  0
  2 41  1  1  0  0  0
  2 33  1  0  0  0  0
  3 47  1  0  0  0  0
  3 23  1  0  0  0  0
  4 40  1  0  0  0  0
  4  2  1  0  0  0  0
  5 32  2  0  0  0  0
  6 48  1  0  0  0  0
  6  1  2  0  0  0  0
  7 42  1  0  0  0  0
  8 11  1  0  0  0  0
  9 20  2  0  0  0  0
 10  6  1  0  0  0  0
 11 43  1  1  0  0  0
 11 15  1  0  0  0  0
 11  7  1  0  0  0  0
 12 61  1  0  0  0  0
 14 10  2  0  0  0  0
 14 17  1  0  0  0  0
 15 44  1  1  0  0  0
 16 15  1  0  0  0  0
 16 66  1  0  0  0  0
 17 19  2  0  0  0  0
 18 70  1  0  0  0  0
 18 15  1  0  0  0  0
 18 20  1  0  0  0  0
 19  1  1  0  0  0  0
 19 22  1  0  0  0  0
 20  4  1  0  0  0  0
 21 13  2  0  0  0  0
 21  8  1  0  0  0  0
 22  7  1  0  0  0  0
 22 23  2  0  0  0  0
 23 46  1  0  0  0  0
 24 21  1  0  0  0  0
 25 12  1  0  0  0  0
 25 72  1  0  0  0  0
 26 24  1  0  0  0  0
 26 27  1  0  0  0  0
 27 55  1  0  0  0  0
 27 74  1  0  0  0  0
 28 27  1  0  0  0  0
 28 29  1  0  0  0  0
 29 57  1  0  0  0  0
 29 76  1  0  0  0  0
 30 29  1  0  0  0  0
 30 36  1  0  0  0  0
 31 59  1  0  0  0  0
 31 78  1  0  0  0  0
 31 25  1  0  0  0  0
 32 12  1  0  0  0  0
 32  2  1  0  0  0  0
 33 38  1  0  0  0  0
 33 62  1  0  0  0  0
 33 37  1  0  0  0  0
 34 31  1  0  0  0  0
 35 80  1  0  0  0  0
 35 34  1  0  0  0  0
 36 35  1  0  0  0  0
 36 81  1  0  0  0  0
 37 84  1  0  0  0  0
 38 68  1  0  0  0  0
 39 38  1  0  0  0  0
 45 18  1  0  0  0  0
 49 10  1  0  0  0  0
 50 14  1  0  0  0  0
 51 24  1  0  0  0  0
 52 17  1  0  0  0  0
 53 25  1  0  0  0  0
 54 26  1  0  0  0  0
 56 28  1  0  0  0  0
 58 30  1  0  0  0  0
 60  8  1  0  0  0  0
 63 34  1  0  0  0  0
 64 35  1  0  0  0  0
 65 36  1  0  0  0  0
 67 37  1  0  0  0  0
 69  7  1  0  0  0  0
 71 24  1  0  0  0  0
 73 26  1  0  0  0  0
 75 28  1  0  0  0  0
 77 30  1  0  0  0  0
 79 34  1  0  0  0  0
 82 37  1  0  0  0  0
 83 38  1  0  0  0  0
M  END
>  <IC50_NM>
188

>  <number_of_rotatable_bonds>
3

>  <charge>
0

>  <lm5_entropy_jk>
30.51387600249522

$$$$
