3RTT
 OpenBabel11252210453D

 38 39  0  0  1  0  0  0  0  0999 V2000
    8.5940   26.1620    1.4920 C   0  0  2  0  0  0  0  0  0  0  0  0
    8.5520   23.7150    1.4630 N   0  0  0  0  0  0  0  0  0  0  0  0
    9.1640   26.5440    4.3120 O   0  0  0  0  0  0  0  0  0  0  0  0
    7.9100   27.2080    3.9740 S   0  0  0  0  0  0  0  0  0  0  0  0
    2.8880   23.9820    5.0990 C   0  0  0  0  0  0  0  0  0  0  0  0
    7.5910   26.9170    2.2840 N   0  0  0  0  0  0  0  0  0  0  0  0
    8.1470   22.5670    0.7500 O   0  0  0  0  0  0  0  0  0  0  0  0
    9.0480   27.0450    0.3070 C   0  0  0  0  0  0  0  0  0  0  0  0
    7.8600   28.6530    4.1960 O   0  0  0  0  0  0  0  0  0  0  0  0
    7.1360   28.0990    1.4780 C   0  0  0  0  0  0  0  0  0  0  0  0
    6.8960   24.7480    0.2880 O   0  0  0  0  0  0  0  0  0  0  0  0
    2.9800   22.9050    5.9850 C   0  0  0  0  0  0  0  0  0  0  0  0
    8.1250   28.2780    0.3080 C   0  0  0  0  0  0  0  0  0  0  0  0
    6.5570   26.4540    4.7860 C   0  0  0  0  0  0  0  0  0  0  0  0
    6.5670   24.9260    4.6590 C   0  0  0  0  0  0  0  0  0  0  0  0
    5.3010   24.2740    5.1690 C   0  0  0  0  0  0  0  0  0  0  0  0
    4.0400   24.6560    4.6850 C   0  0  0  0  0  0  0  0  0  0  0  0
    5.3820   23.2160    6.0890 C   0  0  0  0  0  0  0  0  0  0  0  0
    4.2320   22.5260    6.4790 C   0  0  0  0  0  0  0  0  0  0  0  0
    7.9050   24.8840    0.9590 C   0  0  0  0  0  0  0  0  0  0  0  0
    9.4820   25.8790    2.1300 H   0  0  0  0  0  0  0  0  0  0  0  0
    9.5890   23.6750    1.5870 H   0  0  0  0  0  0  0  0  0  0  0  0
    1.9120   24.2920    4.7170 H   0  0  0  0  0  0  0  0  0  0  0  0
    8.3720   21.7890    1.4750 H   0  0  0  0  0  0  0  0  0  0  0  0
   10.1120   27.3490    0.4430 H   0  0  0  0  0  0  0  0  0  0  0  0
    8.9970   26.5100   -0.6690 H   0  0  0  0  0  0  0  0  0  0  0  0
    6.1020   27.8710    1.1090 H   0  0  0  0  0  0  0  0  0  0  0  0
    7.0850   29.0330    2.0960 H   0  0  0  0  0  0  0  0  0  0  0  0
    2.0810   22.3620    6.2820 H   0  0  0  0  0  0  0  0  0  0  0  0
    7.5830   28.3740   -0.6600 H   0  0  0  0  0  0  0  0  0  0  0  0
    8.7280   29.2080    0.4440 H   0  0  0  0  0  0  0  0  0  0  0  0
    6.5620   26.7190    5.8770 H   0  0  0  0  0  0  0  0  0  0  0  0
    5.5920   26.8450    4.3550 H   0  0  0  0  0  0  0  0  0  0  0  0
    6.6740   24.6290    3.5820 H   0  0  0  0  0  0  0  0  0  0  0  0
    7.4550   24.5130    5.2050 H   0  0  0  0  0  0  0  0  0  0  0  0
    3.9430   25.4750    3.9710 H   0  0  0  0  0  0  0  0  0  0  0  0
    6.3460   22.9270    6.5080 H   0  0  0  0  0  0  0  0  0  0  0  0
    4.3090   21.6960    7.1840 H   0  0  0  0  0  0  0  0  0  0  0  0
  1  6  1  0  0  0  0
  1  8  1  0  0  0  0
  1 20  1  0  0  0  0
  1 21  1  1  0  0  0
  2  7  1  0  0  0  0
  2 20  1  0  0  0  0
  2 22  1  0  0  0  0
  3  4  2  0  0  0  0
  4  6  1  0  0  0  0
  4  9  2  0  0  0  0
  4 14  1  0  0  0  0
  5 12  2  0  0  0  0
  5 17  1  0  0  0  0
  5 23  1  0  0  0  0
  6 10  1  0  0  0  0
  7 24  1  0  0  0  0
  8 13  1  0  0  0  0
  8 25  1  0  0  0  0
  8 26  1  0  0  0  0
 10 13  1  0  0  0  0
 10 27  1  0  0  0  0
 10 28  1  0  0  0  0
 11 20  2  0  0  0  0
 12 19  1  0  0  0  0
 12 29  1  0  0  0  0
 13 30  1  0  0  0  0
 13 31  1  0  0  0  0
 14 15  1  0  0  0  0
 14 32  1  0  0  0  0
 14 33  1  0  0  0  0
 15 16  1  0  0  0  0
 15 34  1  0  0  0  0
 15 35  1  0  0  0  0
 16 17  2  0  0  0  0
 16 18  1  0  0  0  0
 17 36  1  0  0  0  0
 18 19  2  0  0  0  0
 18 37  1  0  0  0  0
 19 38  1  0  0  0  0
M  END
>  <lm5_entropy_jk>
24.875493706853458

>  <number_of_rotatable_bonds>
6

>  <deltaG_kcalmol>
-10.64

>  <charge>
0

$$$$
