model16e
 OpenBabel11252210453D

 93 97  0  0  1  0  0  0  0  0999 V2000
    8.4400   -6.0910   17.1640 C   0  0  0  0  0  0  0  0  0  0  0  0
    8.3880   -5.1980   16.0800 O   0  0  0  0  0  0  0  0  0  0  0  0
    7.2940   -6.8420   17.4850 C   0  0  0  0  0  0  0  0  0  0  0  0
    6.4990   -3.5050   14.5250 O   0  0  0  0  0  0  0  0  0  0  0  0
    7.4100   -7.8270   18.4770 C   0  0  0  0  0  0  0  0  0  0  0  0
    5.5570   -3.3210   16.5950 N   0  0  0  0  0  0  0  0  0  0  0  0
    8.6370   -8.0710   19.0940 C   0  0  0  0  0  0  0  0  0  0  0  0
    7.1740    0.9070   12.6520 C   0  0  0  0  0  0  0  0  0  0  0  0
    4.4220    0.4370   13.6740 N   0  0  0  0  0  0  0  0  0  0  0  0
    5.1740    0.8360   16.4420 O   0  0  0  0  0  0  0  0  0  0  0  0
    9.7670   -7.3210   18.7560 C   0  0  0  0  0  0  0  0  0  0  0  0
    6.8640    2.1460   12.0700 C   0  0  0  0  0  0  0  0  0  0  0  0
    4.1820   -1.1730   12.0790 O   0  0  0  0  0  0  0  0  0  0  0  0
    9.6810   -6.3020   17.7970 C   0  0  0  0  0  0  0  0  0  0  0  0
    7.0690    2.3470   10.7030 C   0  0  0  0  0  0  0  0  0  0  0  0
    5.9980   -6.5880   16.8040 C   0  0  0  0  0  0  0  0  0  0  0  0
    7.5720    1.3120    9.9090 C   0  0  0  0  0  0  0  0  0  0  0  0
   10.8720   -5.4740   17.4560 C   0  0  0  0  0  0  0  0  0  0  0  0
    7.9190    0.0900   10.4960 C   0  0  0  0  0  0  0  0  0  0  0  0
    7.7310   -0.1130   11.8640 C   0  0  0  0  0  0  0  0  0  0  0  0
    7.9730   -3.8580   16.4280 C   0  0  0  0  0  0  0  0  0  0  0  0
    6.6310   -3.5670   15.7360 C   0  0  0  0  0  0  0  0  0  0  0  0
    4.2480   -2.8220   16.1040 C   0  0  1  0  0  0  0  0  0  0  0  0
    2.3310   -6.8880   15.7620 C   0  0  0  0  0  0  0  0  0  0  0  0
    2.5550   -7.6440   16.9180 C   0  0  0  0  0  0  0  0  0  0  0  0
    2.9560   -7.0060   18.0960 C   0  0  0  0  0  0  0  0  0  0  0  0
    3.1420   -5.6210   18.1140 C   0  0  0  0  0  0  0  0  0  0  0  0
    2.9300   -4.8640   16.9510 C   0  0  0  0  0  0  0  0  0  0  0  0
    2.5150   -5.5040   15.7730 C   0  0  0  0  0  0  0  0  0  0  0  0
    3.1040   -3.3750   16.9940 C   0  0  0  0  0  0  0  0  0  0  0  0
    4.1710   -1.2810   16.2050 C   0  0  0  0  0  0  0  0  0  0  0  0
    5.3910   -0.4550   15.8040 C   0  0  1  0  0  0  0  0  0  0  0  0
    5.6090   -0.2090   14.2870 C   0  0  2  0  0  0  0  0  0  0  0  0
    3.8310   -0.0980   12.5480 C   0  0  0  0  0  0  0  0  0  0  0  0
    2.6160    0.6490   11.9630 C   0  0  1  0  0  0  0  0  0  0  0  0
    2.5110    1.9720   12.5710 O   0  0  0  0  0  0  0  0  0  0  0  0
    6.8750    0.6680   14.1040 C   0  0  0  0  0  0  0  0  0  0  0  0
    2.3270    2.9590   11.5890 C   0  0  0  0  0  0  0  0  0  0  0  0
    2.1700    4.1070   11.8970 O   0  0  0  0  0  0  0  0  0  0  0  0
    2.2700    2.3320   10.3230 N   0  0  0  0  0  0  0  0  0  0  0  0
    2.6950    0.9020   10.4370 C   0  0  0  0  0  0  0  0  0  0  0  0
    2.5470    3.0950    9.1230 C   0  0  0  0  0  0  0  0  0  0  0  0
    3.8600    3.3600    8.7040 C   0  0  0  0  0  0  0  0  0  0  0  0
    4.0620    4.1580    7.5750 C   0  0  0  0  0  0  0  0  0  0  0  0
    2.9750    4.6560    6.8480 C   0  0  0  0  0  0  0  0  0  0  0  0
    1.6720    4.3840    7.2770 C   0  0  0  0  0  0  0  0  0  0  0  0
    1.4470    3.6190    8.4230 C   0  0  0  0  0  0  0  0  0  0  0  0
    5.4720    4.5090    7.1660 C   0  0  0  0  0  0  0  0  0  0  0  0
    6.0510    5.4370    7.6930 O   0  0  0  0  0  0  0  0  0  0  0  0
    6.0630    3.6460    6.1010 C   0  0  0  0  0  0  0  0  0  0  0  0
    5.3840   -7.5160   16.7430 H   0  0  0  0  0  0  0  0  0  0  0  0
    6.1450   -6.1990   15.7720 H   0  0  0  0  0  0  0  0  0  0  0  0
    5.4200   -5.8300   17.3870 H   0  0  0  0  0  0  0  0  0  0  0  0
    5.6560   -3.3220   17.6230 H   0  0  0  0  0  0  0  0  0  0  0  0
    4.1850    1.3690   14.0210 H   0  0  0  0  0  0  0  0  0  0  0  0
    6.0440    1.0130   16.9620 H   0  0  0  0  0  0  0  0  0  0  0  0
    6.4670    2.9560   12.6860 H   0  0  0  0  0  0  0  0  0  0  0  0
    6.5340   -8.4140   18.7660 H   0  0  0  0  0  0  0  0  0  0  0  0
    6.8420    3.3150   10.2540 H   0  0  0  0  0  0  0  0  0  0  0  0
    7.6830    1.4560    8.8340 H   0  0  0  0  0  0  0  0  0  0  0  0
    8.7130   -8.8590   19.8500 H   0  0  0  0  0  0  0  0  0  0  0  0
    8.3340   -0.7060    9.8780 H   0  0  0  0  0  0  0  0  0  0  0  0
   10.7210   -7.5520   19.2300 H   0  0  0  0  0  0  0  0  0  0  0  0
    8.0180   -1.0600   12.3210 H   0  0  0  0  0  0  0  0  0  0  0  0
    7.9150   -3.7170   17.5210 H   0  0  0  0  0  0  0  0  0  0  0  0
    4.1080   -3.1570   15.0450 H   0  0  0  0  0  0  0  0  0  0  0  0
    8.7580   -3.2010   15.9750 H   0  0  0  0  0  0  0  0  0  0  0  0
   11.7990   -6.0950   17.4520 H   0  0  0  0  0  0  0  0  0  0  0  0
   11.0030   -4.6590   18.2080 H   0  0  0  0  0  0  0  0  0  0  0  0
   10.7510   -5.0060   16.4490 H   0  0  0  0  0  0  0  0  0  0  0  0
    2.0110   -7.3800   14.8480 H   0  0  0  0  0  0  0  0  0  0  0  0
    2.4200   -8.7260   16.9080 H   0  0  0  0  0  0  0  0  0  0  0  0
    3.1300   -7.5860   19.0030 H   0  0  0  0  0  0  0  0  0  0  0  0
    3.4590   -5.1300   19.0360 H   0  0  0  0  0  0  0  0  0  0  0  0
    2.3200   -4.9160   14.8780 H   0  0  0  0  0  0  0  0  0  0  0  0
    2.1480   -2.8890   16.6740 H   0  0  0  0  0  0  0  0  0  0  0  0
    3.2870   -3.0590   18.0540 H   0  0  0  0  0  0  0  0  0  0  0  0
    4.0280   -1.0460   17.2950 H   0  0  0  0  0  0  0  0  0  0  0  0
    3.2690   -0.9390   15.6450 H   0  0  0  0  0  0  0  0  0  0  0  0
    6.3240   -0.8940   16.2380 H   0  0  0  0  0  0  0  0  0  0  0  0
    5.7800   -1.2120   13.8020 H   0  0  0  0  0  0  0  0  0  0  0  0
    1.6780    0.1110   12.2580 H   0  0  0  0  0  0  0  0  0  0  0  0
    6.7320    1.6370   14.6480 H   0  0  0  0  0  0  0  0  0  0  0  0
    7.7390    0.1600   14.6060 H   0  0  0  0  0  0  0  0  0  0  0  0
    1.9640    0.2630    9.8770 H   0  0  0  0  0  0  0  0  0  0  0  0
    3.7270    0.7480   10.0320 H   0  0  0  0  0  0  0  0  0  0  0  0
    4.7160    2.9230    9.2240 H   0  0  0  0  0  0  0  0  0  0  0  0
    3.1360    5.2520    5.9440 H   0  0  0  0  0  0  0  0  0  0  0  0
    0.8240    4.7820    6.7100 H   0  0  0  0  0  0  0  0  0  0  0  0
    0.4250    3.4320    8.7670 H   0  0  0  0  0  0  0  0  0  0  0  0
    7.1300    3.9010    5.8920 H   0  0  0  0  0  0  0  0  0  0  0  0
    6.0140    2.5680    6.4030 H   0  0  0  0  0  0  0  0  0  0  0  0
    5.4870    3.7540    5.1460 H   0  0  0  0  0  0  0  0  0  0  0  0
  1  2  1  0  0  0  0
  1  3  2  0  0  0  0
  1 14  1  0  0  0  0
  2 21  1  0  0  0  0
  3  5  1  0  0  0  0
  3 16  1  0  0  0  0
  4 22  2  0  0  0  0
  5  7  2  0  0  0  0
  5 58  1  0  0  0  0
  6 22  1  0  0  0  0
  6 23  1  0  0  0  0
  6 54  1  0  0  0  0
  7 11  1  0  0  0  0
  7 61  1  0  0  0  0
  8 12  2  0  0  0  0
  8 20  1  0  0  0  0
  8 37  1  0  0  0  0
  9 33  1  0  0  0  0
  9 34  1  0  0  0  0
  9 55  1  0  0  0  0
 10 32  1  0  0  0  0
 10 56  1  0  0  0  0
 11 14  2  0  0  0  0
 11 63  1  0  0  0  0
 12 15  1  0  0  0  0
 12 57  1  0  0  0  0
 13 34  2  0  0  0  0
 14 18  1  0  0  0  0
 15 17  2  0  0  0  0
 15 59  1  0  0  0  0
 16 51  1  0  0  0  0
 16 52  1  0  0  0  0
 16 53  1  0  0  0  0
 17 19  1  0  0  0  0
 17 60  1  0  0  0  0
 18 68  1  0  0  0  0
 18 69  1  0  0  0  0
 18 70  1  0  0  0  0
 19 20  2  0  0  0  0
 19 62  1  0  0  0  0
 20 64  1  0  0  0  0
 21 22  1  0  0  0  0
 21 65  1  0  0  0  0
 21 67  1  0  0  0  0
 23 30  1  0  0  0  0
 23 31  1  0  0  0  0
 23 66  1  6  0  0  0
 24 25  2  0  0  0  0
 24 29  1  0  0  0  0
 24 71  1  0  0  0  0
 25 26  1  0  0  0  0
 25 72  1  0  0  0  0
 26 27  2  0  0  0  0
 26 73  1  0  0  0  0
 27 28  1  0  0  0  0
 27 74  1  0  0  0  0
 28 29  2  0  0  0  0
 28 30  1  0  0  0  0
 29 75  1  0  0  0  0
 30 76  1  0  0  0  0
 30 77  1  0  0  0  0
 31 32  1  0  0  0  0
 31 78  1  0  0  0  0
 31 79  1  0  0  0  0
 32 33  1  0  0  0  0
 32 80  1  1  0  0  0
 33 37  1  0  0  0  0
 33 81  1  6  0  0  0
 34 35  1  0  0  0  0
 35 36  1  0  0  0  0
 35 41  1  0  0  0  0
 35 82  1  6  0  0  0
 36 38  1  0  0  0  0
 37 83  1  0  0  0  0
 37 84  1  0  0  0  0
 38 39  2  0  0  0  0
 38 40  1  0  0  0  0
 40 41  1  0  0  0  0
 40 42  1  0  0  0  0
 41 85  1  0  0  0  0
 41 86  1  0  0  0  0
 42 43  2  0  0  0  0
 42 47  1  0  0  0  0
 43 44  1  0  0  0  0
 43 87  1  0  0  0  0
 44 45  2  0  0  0  0
 44 48  1  0  0  0  0
 45 46  1  0  0  0  0
 45 88  1  0  0  0  0
 46 47  2  0  0  0  0
 46 89  1  0  0  0  0
 47 90  1  0  0  0  0
 48 49  2  0  0  0  0
 48 50  1  0  0  0  0
 50 91  1  0  0  0  0
 50 92  1  0  0  0  0
 50 93  1  0  0  0  0
M  END
>  <charge>
0

>  <KI_NM>
35.11

>  <number_of_rotatable_bonds>
17

>  <lm5_entropy_jk>
43.769413455775634

>  <ligand_crystal_conformation>
A

$$$$
