model31
 OpenBabel11252210453D

 78 79  0  0  1  0  0  0  0  0999 V2000
   11.1990   17.9140    7.5830 C   0  0  2  0  0  0  0  0  0  0  0  0
    8.3710   18.3650    8.9800 N   0  0  0  0  0  0  0  0  0  0  0  0
    7.6100   20.0460   11.0290 O   0  0  0  0  0  0  0  0  0  0  0  0
    9.7960   18.1860    7.0210 C   0  0  0  0  0  0  0  0  0  0  0  0
    4.7770   17.4730    9.3480 N   0  0  0  0  0  0  0  0  0  0  0  0
   12.0700   18.7250    6.8020 O   0  0  0  0  0  0  0  0  0  0  0  0
    8.7080   17.6280    7.8690 C   0  0  0  0  0  0  0  0  0  0  0  0
   11.8220   15.9630    6.1070 N   0  0  0  0  0  0  0  0  0  0  0  0
    5.7810   19.0920    8.0820 O   0  0  0  0  0  0  0  0  0  0  0  0
    7.1250   18.0340    9.7730 C   0  0  1  0  0  0  0  0  0  0  0  0
    8.1550   16.5880    7.5910 O   0  0  0  0  0  0  0  0  0  0  0  0
    6.9650   18.7980   11.1060 C   0  0  1  0  0  0  0  0  0  0  0  0
   10.2460   14.3150    6.0250 O   0  0  0  0  0  0  0  0  0  0  0  0
    7.6340   18.0430   12.2350 C   0  0  0  0  0  0  0  0  0  0  0  0
    5.8560   18.2440    8.9510 C   0  0  0  0  0  0  0  0  0  0  0  0
    3.4670   17.4550    8.6640 C   0  0  0  0  0  0  0  0  0  0  0  0
    3.3250   16.1630    7.8220 C   0  0  0  0  0  0  0  0  0  0  0  0
    4.2760   16.1620    6.5960 C   0  0  0  0  0  0  0  0  0  0  0  0
    3.7420   17.0550    5.4450 C   0  0  0  0  0  0  0  0  0  0  0  0
    4.8810   17.7650    4.6700 C   0  0  0  0  0  0  0  0  0  0  0  0
    5.9520   16.7790    4.1560 C   0  0  0  0  0  0  0  0  0  0  0  0
    6.8830   17.4480    3.1230 C   0  0  0  0  0  0  0  0  0  0  0  0
    7.9160   16.4390    2.5810 C   0  0  0  0  0  0  0  0  0  0  0  0
    9.1240   16.2810    3.5180 C   0  0  0  0  0  0  0  0  0  0  0  0
    9.9690   15.0500    3.1250 C   0  0  0  0  0  0  0  0  0  0  0  0
   11.2780   15.0000    3.9670 C   0  0  0  0  0  0  0  0  0  0  0  0
   11.6320   16.3980    7.4950 C   0  0  1  0  0  0  0  0  0  0  0  0
   11.0610   15.0240    5.4640 C   0  0  0  0  0  0  0  0  0  0  0  0
   12.9460   16.1400    8.2800 C   0  0  0  0  0  0  0  0  0  0  0  0
   13.5140   14.7360    8.1480 C   0  0  0  0  0  0  0  0  0  0  0  0
   12.7470   13.6200    8.5090 C   0  0  0  0  0  0  0  0  0  0  0  0
   13.2770   12.3220    8.4140 C   0  0  0  0  0  0  0  0  0  0  0  0
   14.5890   12.1390    7.9490 C   0  0  0  0  0  0  0  0  0  0  0  0
   15.3700   13.2520    7.5920 C   0  0  0  0  0  0  0  0  0  0  0  0
   14.8300   14.5470    7.6960 C   0  0  0  0  0  0  0  0  0  0  0  0
   15.4330   15.4070    7.4160 H   0  0  0  0  0  0  0  0  0  0  0  0
    8.8730   19.2380    9.1210 H   0  0  0  0  0  0  0  0  0  0  0  0
   11.2370   18.2260    8.6420 H   0  0  0  0  0  0  0  0  0  0  0  0
   12.8040   19.0280    7.4010 H   0  0  0  0  0  0  0  0  0  0  0  0
    9.6880   17.7270    6.0370 H   0  0  0  0  0  0  0  0  0  0  0  0
    4.9700   16.7210   10.0050 H   0  0  0  0  0  0  0  0  0  0  0  0
   12.5000   16.4590    5.5470 H   0  0  0  0  0  0  0  0  0  0  0  0
    7.1190   16.9590    9.9820 H   0  0  0  0  0  0  0  0  0  0  0  0
    5.8900   18.9320   11.3410 H   0  0  0  0  0  0  0  0  0  0  0  0
    7.7950   20.1940   10.0820 H   0  0  0  0  0  0  0  0  0  0  0  0
    7.1550   17.0690   12.3870 H   0  0  0  0  0  0  0  0  0  0  0  0
    3.3650   18.3440    8.0200 H   0  0  0  0  0  0  0  0  0  0  0  0
    2.2840   16.0430    7.4870 H   0  0  0  0  0  0  0  0  0  0  0  0
    4.4190   15.1390    6.2220 H   0  0  0  0  0  0  0  0  0  0  0  0
    3.0600   17.8230    5.8340 H   0  0  0  0  0  0  0  0  0  0  0  0
    5.3580   18.5080    5.3260 H   0  0  0  0  0  0  0  0  0  0  0  0
    5.4670   15.9050    3.7030 H   0  0  0  0  0  0  0  0  0  0  0  0
    7.3840   18.3250    3.5540 H   0  0  0  0  0  0  0  0  0  0  0  0
    8.2610   16.7600    1.5890 H   0  0  0  0  0  0  0  0  0  0  0  0
    8.7740   16.1670    4.5540 H   0  0  0  0  0  0  0  0  0  0  0  0
   10.2060   15.0800    2.0500 H   0  0  0  0  0  0  0  0  0  0  0  0
   11.9290   15.8340    3.7020 H   0  0  0  0  0  0  0  0  0  0  0  0
   10.8270   15.7890    7.9380 H   0  0  0  0  0  0  0  0  0  0  0  0
   12.7760   16.3540    9.3410 H   0  0  0  0  0  0  0  0  0  0  0  0
   11.7320   13.7640    8.8580 H   0  0  0  0  0  0  0  0  0  0  0  0
   12.6700   11.4640    8.6980 H   0  0  0  0  0  0  0  0  0  0  0  0
   14.9970   11.1330    7.8660 H   0  0  0  0  0  0  0  0  0  0  0  0
   16.3900   13.1140    7.2330 H   0  0  0  0  0  0  0  0  0  0  0  0
   13.6920   16.8710    7.9560 H   0  0  0  0  0  0  0  0  0  0  0  0
    9.6070   19.2530    6.9120 H   0  0  0  0  0  0  0  0  0  0  0  0
    7.5580   18.6090   13.1740 H   0  0  0  0  0  0  0  0  0  0  0  0
    2.6600   17.5100    9.4130 H   0  0  0  0  0  0  0  0  0  0  0  0
    3.5340   15.2900    8.4570 H   0  0  0  0  0  0  0  0  0  0  0  0
    5.2810   16.4940    6.9000 H   0  0  0  0  0  0  0  0  0  0  0  0
    3.1400   16.4500    4.7530 H   0  0  0  0  0  0  0  0  0  0  0  0
    4.4520   18.3270    3.8290 H   0  0  0  0  0  0  0  0  0  0  0  0
    6.5460   16.4030    5.0000 H   0  0  0  0  0  0  0  0  0  0  0  0
    6.2770   17.8170    2.2860 H   0  0  0  0  0  0  0  0  0  0  0  0
    7.4300   15.4650    2.4410 H   0  0  0  0  0  0  0  0  0  0  0  0
    9.7380   17.1920    3.4890 H   0  0  0  0  0  0  0  0  0  0  0  0
    9.3870   14.1310    3.2910 H   0  0  0  0  0  0  0  0  0  0  0  0
   11.8430   14.0870    3.7620 H   0  0  0  0  0  0  0  0  0  0  0  0
    8.6850   17.8710   12.0070 H   0  0  0  0  0  0  0  0  0  0  0  0
  1 38  1  1  0  0  0
  1 27  1  0  0  0  0
  2 37  1  0  0  0  0
  2 10  1  0  0  0  0
  3 45  1  0  0  0  0
  4 65  1  0  0  0  0
  4  1  1  0  0  0  0
  4  7  1  0  0  0  0
  5 41  1  0  0  0  0
  6 39  1  0  0  0  0
  6  1  1  0  0  0  0
  7  2  1  0  0  0  0
  8 27  1  0  0  0  0
  9 15  2  0  0  0  0
 10 43  1  1  0  0  0
 10 12  1  0  0  0  0
 11  7  2  0  0  0  0
 12  3  1  0  0  0  0
 12 44  1  1  0  0  0
 12 14  1  0  0  0  0
 14 66  1  0  0  0  0
 15  5  1  0  0  0  0
 15 10  1  0  0  0  0
 16 67  1  0  0  0  0
 16  5  1  0  0  0  0
 17 68  1  0  0  0  0
 17 16  1  0  0  0  0
 18 69  1  0  0  0  0
 18 17  1  0  0  0  0
 19 50  1  0  0  0  0
 19 18  1  0  0  0  0
 20 51  1  0  0  0  0
 20 19  1  0  0  0  0
 21 20  1  0  0  0  0
 21 72  1  0  0  0  0
 22 53  1  0  0  0  0
 22 21  1  0  0  0  0
 23 74  1  0  0  0  0
 23 22  1  0  0  0  0
 23 24  1  0  0  0  0
 24 55  1  0  0  0  0
 25 24  1  0  0  0  0
 25 76  1  0  0  0  0
 25 26  1  0  0  0  0
 26 28  1  0  0  0  0
 27 58  1  1  0  0  0
 27 29  1  0  0  0  0
 28  8  1  0  0  0  0
 28 13  2  0  0  0  0
 29 59  1  0  0  0  0
 30 29  1  0  0  0  0
 30 31  2  0  0  0  0
 31 60  1  0  0  0  0
 32 31  1  0  0  0  0
 32 61  1  0  0  0  0
 33 32  2  0  0  0  0
 34 35  2  0  0  0  0
 34 33  1  0  0  0  0
 35 30  1  0  0  0  0
 36 35  1  0  0  0  0
 40  4  1  0  0  0  0
 42  8  1  0  0  0  0
 46 14  1  0  0  0  0
 47 16  1  0  0  0  0
 48 17  1  0  0  0  0
 49 18  1  0  0  0  0
 52 21  1  0  0  0  0
 54 23  1  0  0  0  0
 56 25  1  0  0  0  0
 57 26  1  0  0  0  0
 62 33  1  0  0  0  0
 63 34  1  0  0  0  0
 64 29  1  0  0  0  0
 70 19  1  0  0  0  0
 71 20  1  0  0  0  0
 73 22  1  0  0  0  0
 75 24  1  0  0  0  0
 77 26  1  0  0  0  0
 78 14  1  0  0  0  0
M  END
>  <IC50_NM>
496

>  <number_of_rotatable_bonds>
3

>  <charge>
0

>  <lm5_entropy_jk>
23.111899726860837

$$$$
