model31
 OpenBabel11252210453D

 78 79  0  0  1  0  0  0  0  0999 V2000
   11.1270   17.9480    7.6230 C   0  0  2  0  0  0  0  0  0  0  0  0
    8.1960   18.4160    9.0230 N   0  0  0  0  0  0  0  0  0  0  0  0
    7.4590   19.8170   11.3730 O   0  0  0  0  0  0  0  0  0  0  0  0
    9.7150   18.2830    7.1040 C   0  0  0  0  0  0  0  0  0  0  0  0
    4.6090   17.5110    9.4090 N   0  0  0  0  0  0  0  0  0  0  0  0
   11.9990   18.7930    6.8820 O   0  0  0  0  0  0  0  0  0  0  0  0
    8.6200   17.6960    7.9280 C   0  0  0  0  0  0  0  0  0  0  0  0
   11.6630   16.0650    6.0130 N   0  0  0  0  0  0  0  0  0  0  0  0
    5.5270   19.3080    8.3460 O   0  0  0  0  0  0  0  0  0  0  0  0
    6.9700   18.0070    9.8070 C   0  0  1  0  0  0  0  0  0  0  0  0
    8.1230   16.6350    7.6250 O   0  0  0  0  0  0  0  0  0  0  0  0
    6.9180   18.5130   11.2700 C   0  0  1  0  0  0  0  0  0  0  0  0
   10.2470   14.2710    5.9970 O   0  0  0  0  0  0  0  0  0  0  0  0
    7.7780   17.6360   12.1640 C   0  0  0  0  0  0  0  0  0  0  0  0
    5.6590   18.3550    9.0940 C   0  0  0  0  0  0  0  0  0  0  0  0
    3.3350   17.4680    8.6620 C   0  0  0  0  0  0  0  0  0  0  0  0
    3.3210   16.2470    7.7080 C   0  0  0  0  0  0  0  0  0  0  0  0
    4.3490   16.3770    6.5510 C   0  0  0  0  0  0  0  0  0  0  0  0
    3.8450   17.3120    5.4220 C   0  0  0  0  0  0  0  0  0  0  0  0
    4.9940   17.8420    4.5260 C   0  0  0  0  0  0  0  0  0  0  0  0
    5.9300   16.7220    4.0160 C   0  0  0  0  0  0  0  0  0  0  0  0
    6.8160   17.2120    2.8510 C   0  0  0  0  0  0  0  0  0  0  0  0
    7.8290   16.1330    2.4110 C   0  0  0  0  0  0  0  0  0  0  0  0
    9.0830   16.1310    3.3070 C   0  0  0  0  0  0  0  0  0  0  0  0
    9.9500   14.8780    3.0540 C   0  0  0  0  0  0  0  0  0  0  0  0
   11.2450   14.9260    3.9200 C   0  0  0  0  0  0  0  0  0  0  0  0
   11.5510   16.4350    7.4300 C   0  0  1  0  0  0  0  0  0  0  0  0
   10.9970   15.0310    5.4090 C   0  0  0  0  0  0  0  0  0  0  0  0
   12.9090   16.1360    8.1340 C   0  0  0  0  0  0  0  0  0  0  0  0
   13.4590   14.7290    7.9330 C   0  0  0  0  0  0  0  0  0  0  0  0
   12.7100   13.6100    8.3200 C   0  0  0  0  0  0  0  0  0  0  0  0
   13.2170   12.3100    8.1600 C   0  0  0  0  0  0  0  0  0  0  0  0
   14.4920   12.1250    7.6030 C   0  0  0  0  0  0  0  0  0  0  0  0
   15.2610   13.2390    7.2280 C   0  0  0  0  0  0  0  0  0  0  0  0
   14.7450   14.5360    7.4000 C   0  0  0  0  0  0  0  0  0  0  0  0
   15.3410   15.3950    7.1070 H   0  0  0  0  0  0  0  0  0  0  0  0
    8.6110   19.3300    9.2000 H   0  0  0  0  0  0  0  0  0  0  0  0
   11.1890   18.1930    8.6990 H   0  0  0  0  0  0  0  0  0  0  0  0
   12.6680   19.1500    7.5240 H   0  0  0  0  0  0  0  0  0  0  0  0
    9.5810   17.8960    6.0930 H   0  0  0  0  0  0  0  0  0  0  0  0
    4.8480   16.7000    9.9780 H   0  0  0  0  0  0  0  0  0  0  0  0
   12.3230   16.5750    5.4420 H   0  0  0  0  0  0  0  0  0  0  0  0
    6.9410   16.9160    9.8450 H   0  0  0  0  0  0  0  0  0  0  0  0
    5.8680   18.4870   11.6250 H   0  0  0  0  0  0  0  0  0  0  0  0
    6.8930   20.3160   11.9910 H   0  0  0  0  0  0  0  0  0  0  0  0
    7.4530   16.5900   12.1200 H   0  0  0  0  0  0  0  0  0  0  0  0
    3.1980   18.4000    8.0910 H   0  0  0  0  0  0  0  0  0  0  0  0
    2.3100   16.1090    7.2940 H   0  0  0  0  0  0  0  0  0  0  0  0
    4.5570   15.3860    6.1270 H   0  0  0  0  0  0  0  0  0  0  0  0
    3.3180   18.1750    5.8490 H   0  0  0  0  0  0  0  0  0  0  0  0
    5.5860   18.5750    5.0920 H   0  0  0  0  0  0  0  0  0  0  0  0
    5.3410   15.8560    3.6890 H   0  0  0  0  0  0  0  0  0  0  0  0
    7.3360   18.1400    3.1240 H   0  0  0  0  0  0  0  0  0  0  0  0
    8.1240   16.3050    1.3660 H   0  0  0  0  0  0  0  0  0  0  0  0
    8.7820   16.1620    4.3630 H   0  0  0  0  0  0  0  0  0  0  0  0
   10.2030   14.8020    1.9860 H   0  0  0  0  0  0  0  0  0  0  0  0
   11.8780   15.7630    3.6160 H   0  0  0  0  0  0  0  0  0  0  0  0
   10.7690   15.8060    7.8810 H   0  0  0  0  0  0  0  0  0  0  0  0
   12.8030   16.3240    9.2080 H   0  0  0  0  0  0  0  0  0  0  0  0
   11.7250   13.7550    8.7440 H   0  0  0  0  0  0  0  0  0  0  0  0
   12.6210   11.4510    8.4650 H   0  0  0  0  0  0  0  0  0  0  0  0
   14.8820   11.1170    7.4660 H   0  0  0  0  0  0  0  0  0  0  0  0
   16.2560   13.0980    6.8030 H   0  0  0  0  0  0  0  0  0  0  0  0
   13.6440   16.8670    7.7870 H   0  0  0  0  0  0  0  0  0  0  0  0
    9.5480   19.3580    7.0710 H   0  0  0  0  0  0  0  0  0  0  0  0
    7.7360   17.9660   13.2100 H   0  0  0  0  0  0  0  0  0  0  0  0
    2.4940   17.4050    9.3720 H   0  0  0  0  0  0  0  0  0  0  0  0
    3.5280   15.3340    8.2860 H   0  0  0  0  0  0  0  0  0  0  0  0
    5.3200   16.7310    6.9280 H   0  0  0  0  0  0  0  0  0  0  0  0
    3.1050   16.7830    4.8060 H   0  0  0  0  0  0  0  0  0  0  0  0
    4.5660   18.3920    3.6770 H   0  0  0  0  0  0  0  0  0  0  0  0
    6.5620   16.3770    4.8460 H   0  0  0  0  0  0  0  0  0  0  0  0
    6.1710   17.4580    1.9980 H   0  0  0  0  0  0  0  0  0  0  0  0
    7.3450   15.1470    2.4320 H   0  0  0  0  0  0  0  0  0  0  0  0
    9.6720   17.0410    3.1260 H   0  0  0  0  0  0  0  0  0  0  0  0
    9.3780   13.9710    3.3000 H   0  0  0  0  0  0  0  0  0  0  0  0
   11.8360   14.0160    3.7820 H   0  0  0  0  0  0  0  0  0  0  0  0
    8.8160   17.6730   11.8280 H   0  0  0  0  0  0  0  0  0  0  0  0
  1 38  1  1  0  0  0
  1 27  1  0  0  0  0
  2 37  1  0  0  0  0
  2 10  1  0  0  0  0
  3 45  1  0  0  0  0
  4 65  1  0  0  0  0
  4  1  1  0  0  0  0
  4  7  1  0  0  0  0
  5 41  1  0  0  0  0
  6 39  1  0  0  0  0
  6  1  1  0  0  0  0
  7  2  1  0  0  0  0
  8 27  1  0  0  0  0
  9 15  2  0  0  0  0
 10 43  1  1  0  0  0
 10 12  1  0  0  0  0
 11  7  2  0  0  0  0
 12  3  1  0  0  0  0
 12 44  1  1  0  0  0
 12 14  1  0  0  0  0
 14 66  1  0  0  0  0
 15  5  1  0  0  0  0
 15 10  1  0  0  0  0
 16 67  1  0  0  0  0
 16  5  1  0  0  0  0
 17 68  1  0  0  0  0
 17 16  1  0  0  0  0
 18 69  1  0  0  0  0
 18 17  1  0  0  0  0
 19 50  1  0  0  0  0
 19 18  1  0  0  0  0
 20 51  1  0  0  0  0
 20 19  1  0  0  0  0
 21 20  1  0  0  0  0
 21 72  1  0  0  0  0
 22 53  1  0  0  0  0
 22 21  1  0  0  0  0
 23 74  1  0  0  0  0
 23 22  1  0  0  0  0
 23 24  1  0  0  0  0
 24 55  1  0  0  0  0
 25 24  1  0  0  0  0
 25 76  1  0  0  0  0
 25 26  1  0  0  0  0
 26 28  1  0  0  0  0
 27 58  1  1  0  0  0
 27 29  1  0  0  0  0
 28  8  1  0  0  0  0
 28 13  2  0  0  0  0
 29 59  1  0  0  0  0
 30 29  1  0  0  0  0
 30 31  2  0  0  0  0
 31 60  1  0  0  0  0
 32 31  1  0  0  0  0
 32 61  1  0  0  0  0
 33 32  2  0  0  0  0
 34 35  2  0  0  0  0
 34 33  1  0  0  0  0
 35 30  1  0  0  0  0
 36 35  1  0  0  0  0
 40  4  1  0  0  0  0
 42  8  1  0  0  0  0
 46 14  1  0  0  0  0
 47 16  1  0  0  0  0
 48 17  1  0  0  0  0
 49 18  1  0  0  0  0
 52 21  1  0  0  0  0
 54 23  1  0  0  0  0
 56 25  1  0  0  0  0
 57 26  1  0  0  0  0
 62 33  1  0  0  0  0
 63 34  1  0  0  0  0
 64 29  1  0  0  0  0
 70 19  1  0  0  0  0
 71 20  1  0  0  0  0
 73 22  1  0  0  0  0
 75 24  1  0  0  0  0
 77 26  1  0  0  0  0
 78 14  1  0  0  0  0
M  END
>  <IC50_NM>
496

>  <number_of_rotatable_bonds>
3

>  <charge>
0

>  <lm5_entropy_jk>
23.111899726860837

$$$$
