3QTX
 OpenBabel11252210453D

 41 43  0  0  1  0  0  0  0  0999 V2000
   66.0230  154.2800  -50.3430 N   0  0  0  0  0  0  0  0  0  0  0  0
   67.5400  153.4170  -51.8600 N   0  0  0  0  0  0  0  0  0  0  0  0
   64.5550  154.7640  -48.6220 N   0  0  0  0  0  0  0  0  0  0  0  0
   71.2950  149.2680  -46.2040 N   0  3  0  0  0  0  0  0  0  0  0  0
   61.8440  153.8160  -42.8090 N   0  0  0  0  0  0  0  0  0  0  0  0
   67.0790  153.4490  -50.6110 C   0  0  0  0  0  0  0  0  0  0  0  0
   67.5010  152.6420  -49.6030 C   0  0  0  0  0  0  0  0  0  0  0  0
   68.5650  151.6480  -49.7160 C   0  0  0  0  0  0  0  0  0  0  0  0
   68.6770  150.6590  -48.5920 C   0  0  0  0  0  0  0  0  0  0  0  0
   69.9160  150.4190  -47.9700 C   0  0  0  0  0  0  0  0  0  0  0  0
   70.0030  149.5040  -46.8920 C   0  0  0  0  0  0  0  0  0  0  0  0
   68.8490  148.8290  -46.4480 C   0  0  0  0  0  0  0  0  0  0  0  0
   67.6260  149.0570  -47.0850 C   0  0  0  0  0  0  0  0  0  0  0  0
   67.5400  149.9510  -48.1600 C   0  0  0  0  0  0  0  0  0  0  0  0
   65.6280  154.0820  -49.1010 C   0  0  0  0  0  0  0  0  0  0  0  0
   63.8080  154.6960  -47.4700 C   0  0  0  0  0  0  0  0  0  0  0  0
   63.1250  155.8350  -47.0520 C   0  0  0  0  0  0  0  0  0  0  0  0
   62.3060  155.8250  -45.9220 C   0  0  0  0  0  0  0  0  0  0  0  0
   62.1680  154.6180  -45.2250 C   0  0  0  0  0  0  0  0  0  0  0  0
   62.8300  153.4510  -45.6280 C   0  0  0  0  0  0  0  0  0  0  0  0
   63.6520  153.5090  -46.7540 C   0  0  0  0  0  0  0  0  0  0  0  0
   69.3010  151.5970  -50.6840 O   0  0  0  0  0  0  0  0  0  0  0  0
   72.2380  149.9850  -46.5120 O   0  0  0  0  0  0  0  0  0  0  0  0
   71.3010  148.5410  -45.2150 O   0  5  0  0  0  0  0  0  0  0  0  0
   60.0670  153.4540  -44.1420 O   0  0  0  0  0  0  0  0  0  0  0  0
   60.7210  155.7660  -43.2400 O   0  0  0  0  0  0  0  0  0  0  0  0
   66.5580  152.9240  -48.1750 S   0  0  0  0  0  0  0  0  0  0  0  0
   61.0320  154.5160  -43.9170 S   0  0  0  0  0  0  0  0  0  0  0  0
   67.2310  154.1150  -52.5290 H   0  0  0  0  0  0  0  0  0  0  0  0
   68.3760  152.8660  -51.9970 H   0  0  0  0  0  0  0  0  0  0  0  0
   70.7970  150.9610  -48.3160 H   0  0  0  0  0  0  0  0  0  0  0  0
   68.8950  148.1300  -45.6100 H   0  0  0  0  0  0  0  0  0  0  0  0
   66.7360  148.5450  -46.7300 H   0  0  0  0  0  0  0  0  0  0  0  0
   66.5830  150.1090  -48.6470 H   0  0  0  0  0  0  0  0  0  0  0  0
   64.1380  155.3750  -49.3130 H   0  0  0  0  0  0  0  0  0  0  0  0
   63.2100  156.7450  -47.6320 H   0  0  0  0  0  0  0  0  0  0  0  0
   61.7690  156.7380  -45.6360 H   0  0  0  0  0  0  0  0  0  0  0  0
   62.7110  152.5000  -45.0960 H   0  0  0  0  0  0  0  0  0  0  0  0
   64.1310  152.5990  -47.0890 H   0  0  0  0  0  0  0  0  0  0  0  0
   61.0750  153.1550  -42.9140 H   0  0  0  0  0  0  0  0  0  0  0  0
   61.4360  154.6060  -42.3090 H   0  0  0  0  0  0  0  0  0  0  0  0
  1  6  1  0  0  0  0
  1 15  2  0  0  0  0
  2  6  1  0  0  0  0
  2 29  1  0  0  0  0
  2 30  1  0  0  0  0
  3 15  1  0  0  0  0
  3 16  1  0  0  0  0
  3 35  1  0  0  0  0
  4 11  1  0  0  0  0
  4 23  2  0  0  0  0
  4 24  1  0  0  0  0
  5 28  1  0  0  0  0
  5 40  1  0  0  0  0
  5 41  1  0  0  0  0
  6  7  2  0  0  0  0
  7 27  1  0  0  0  0
  8  7  1  0  0  0  0
  8  9  1  0  0  0  0
  8 22  2  0  0  0  0
  9 10  2  0  0  0  0
  9 14  1  0  0  0  0
 10 11  1  0  0  0  0
 10 31  1  0  0  0  0
 11 12  2  0  0  0  0
 12 13  1  0  0  0  0
 12 32  1  0  0  0  0
 13 14  2  0  0  0  0
 13 33  1  0  0  0  0
 14 34  1  0  0  0  0
 15 27  1  0  0  0  0
 16 17  2  0  0  0  0
 16 21  1  0  0  0  0
 17 18  1  0  0  0  0
 17 36  1  0  0  0  0
 18 19  2  0  0  0  0
 18 37  1  0  0  0  0
 19 20  1  0  0  0  0
 19 28  1  0  0  0  0
 20 21  2  0  0  0  0
 20 38  1  0  0  0  0
 21 39  1  0  0  0  0
 25 28  2  0  0  0  0
 26 28  2  0  0  0  0
M  CHG  2   4   1  24  -1
M  END
>  <lm5_entropy_jk>
24.48849005177307

>  <number_of_rotatable_bonds>
6

>  <IC50_NM>
70

>  <charge>
0

$$$$
