3QTX
 OpenBabel11252210453D

 41 43  0  0  1  0  0  0  0  0999 V2000
   65.9630  154.3050  -50.5650 N   0  0  0  0  0  0  0  0  0  0  0  0
   67.4050  153.3850  -52.1120 N   0  0  0  0  0  0  0  0  0  0  0  0
   64.5290  154.7570  -48.8090 N   0  0  0  0  0  0  0  0  0  0  0  0
   71.5320  148.8240  -47.1780 N   0  3  0  0  0  0  0  0  0  0  0  0
   61.9160  153.4730  -43.0000 N   0  0  0  0  0  0  0  0  0  0  0  0
   67.0130  153.4720  -50.8470 C   0  0  0  0  0  0  0  0  0  0  0  0
   67.4770  152.6930  -49.8360 C   0  0  0  0  0  0  0  0  0  0  0  0
   68.4740  151.6330  -50.0070 C   0  0  0  0  0  0  0  0  0  0  0  0
   68.6700  150.6550  -48.8820 C   0  0  0  0  0  0  0  0  0  0  0  0
   69.9640  150.1920  -48.5870 C   0  0  0  0  0  0  0  0  0  0  0  0
   70.1670  149.2700  -47.5320 C   0  0  0  0  0  0  0  0  0  0  0  0
   69.0680  148.7920  -46.7900 C   0  0  0  0  0  0  0  0  0  0  0  0
   67.7750  149.2210  -47.1180 C   0  0  0  0  0  0  0  0  0  0  0  0
   67.5750  150.1360  -48.1620 C   0  0  0  0  0  0  0  0  0  0  0  0
   65.6430  154.1540  -49.2950 C   0  0  0  0  0  0  0  0  0  0  0  0
   63.8050  154.6290  -47.6500 C   0  0  0  0  0  0  0  0  0  0  0  0
   63.0240  155.7000  -47.2250 C   0  0  0  0  0  0  0  0  0  0  0  0
   62.2250  155.6190  -46.0860 C   0  0  0  0  0  0  0  0  0  0  0  0
   62.2190  154.4120  -45.3800 C   0  0  0  0  0  0  0  0  0  0  0  0
   62.9890  153.3140  -45.7850 C   0  0  0  0  0  0  0  0  0  0  0  0
   63.7750  153.4370  -46.9300 C   0  0  0  0  0  0  0  0  0  0  0  0
   69.1040  151.5180  -51.0420 O   0  0  0  0  0  0  0  0  0  0  0  0
   72.4360  149.1460  -47.9460 O   0  0  0  0  0  0  0  0  0  0  0  0
   71.7580  148.6420  -45.9810 O   0  5  0  0  0  0  0  0  0  0  0  0
   60.1110  153.1960  -44.3770 O   0  0  0  0  0  0  0  0  0  0  0  0
   60.7660  155.4230  -43.3470 O   0  0  0  0  0  0  0  0  0  0  0  0
   66.7190  153.1510  -48.3430 S   0  0  0  0  0  0  0  0  0  0  0  0
   61.0990  154.2090  -44.0750 S   0  0  0  0  0  0  0  0  0  0  0  0
   67.1590  154.1160  -52.7700 H   0  0  0  0  0  0  0  0  0  0  0  0
   68.2230  152.8050  -52.2530 H   0  0  0  0  0  0  0  0  0  0  0  0
   70.8050  150.5710  -49.1720 H   0  0  0  0  0  0  0  0  0  0  0  0
   69.2090  148.0880  -45.9670 H   0  0  0  0  0  0  0  0  0  0  0  0
   66.9220  148.8520  -46.5480 H   0  0  0  0  0  0  0  0  0  0  0  0
   66.5630  150.4420  -48.4120 H   0  0  0  0  0  0  0  0  0  0  0  0
   64.0740  155.3650  -49.4810 H   0  0  0  0  0  0  0  0  0  0  0  0
   63.0090  156.6090  -47.8110 H   0  0  0  0  0  0  0  0  0  0  0  0
   61.6040  156.4760  -45.7990 H   0  0  0  0  0  0  0  0  0  0  0  0
   62.9820  152.3620  -45.2470 H   0  0  0  0  0  0  0  0  0  0  0  0
   64.3240  152.5710  -47.2770 H   0  0  0  0  0  0  0  0  0  0  0  0
   61.3020  152.6970  -43.2690 H   0  0  0  0  0  0  0  0  0  0  0  0
   61.3480  154.0980  -42.4330 H   0  0  0  0  0  0  0  0  0  0  0  0
  1  6  1  0  0  0  0
  1 15  2  0  0  0  0
  2  6  1  0  0  0  0
  2 29  1  0  0  0  0
  2 30  1  0  0  0  0
  3 15  1  0  0  0  0
  3 16  1  0  0  0  0
  3 35  1  0  0  0  0
  4 11  1  0  0  0  0
  4 23  2  0  0  0  0
  4 24  1  0  0  0  0
  5 28  1  0  0  0  0
  5 40  1  0  0  0  0
  5 41  1  0  0  0  0
  6  7  2  0  0  0  0
  7 27  1  0  0  0  0
  8  7  1  0  0  0  0
  8  9  1  0  0  0  0
  8 22  2  0  0  0  0
  9 10  2  0  0  0  0
  9 14  1  0  0  0  0
 10 11  1  0  0  0  0
 10 31  1  0  0  0  0
 11 12  2  0  0  0  0
 12 13  1  0  0  0  0
 12 32  1  0  0  0  0
 13 14  2  0  0  0  0
 13 33  1  0  0  0  0
 14 34  1  0  0  0  0
 15 27  1  0  0  0  0
 16 17  2  0  0  0  0
 16 21  1  0  0  0  0
 17 18  1  0  0  0  0
 17 36  1  0  0  0  0
 18 19  2  0  0  0  0
 18 37  1  0  0  0  0
 19 20  1  0  0  0  0
 19 28  1  0  0  0  0
 20 21  2  0  0  0  0
 20 38  1  0  0  0  0
 21 39  1  0  0  0  0
 25 28  2  0  0  0  0
 26 28  2  0  0  0  0
M  CHG  2   4   1  24  -1
M  END
>  <lm5_entropy_jk>
24.48849005177307

>  <number_of_rotatable_bonds>
6

>  <IC50_NM>
70

>  <charge>
0

$$$$
