6QBH
 OpenBabel11252210453D

 81 82  0  0  1  0  0  0  0  0999 V2000
    8.4530   18.3850    8.8330 N   0  0  0  0  0  0  0  0  0  0  0  0
   11.4140   17.7590    7.5030 C   0  0  1  0  0  0  0  0  0  0  0  0
   12.3840   18.5220    6.7540 O   0  0  0  0  0  0  0  0  0  0  0  0
   10.0490   18.2150    6.9480 C   0  0  0  0  0  0  0  0  0  0  0  0
    4.9190   17.3770    9.2450 N   0  0  0  0  0  0  0  0  0  0  0  0
   11.4050   14.6670    4.0110 O   0  0  0  0  0  0  0  0  0  0  0  0
    8.8870   17.6300    7.7260 C   0  0  0  0  0  0  0  0  0  0  0  0
   11.7300   15.8970    5.8760 N   0  0  0  0  0  0  0  0  0  0  0  0
    5.8400   19.1100    8.0650 O   0  0  0  0  0  0  0  0  0  0  0  0
    7.2960   17.9490    9.6430 C   0  0  1  0  0  0  0  0  0  0  0  0
    8.3850   16.5480    7.4730 O   0  0  0  0  0  0  0  0  0  0  0  0
    7.3180   18.6260   11.0450 C   0  0  0  0  0  0  0  0  0  0  0  0
   10.2970   14.0150    5.9090 O   0  0  0  0  0  0  0  0  0  0  0  0
    6.5460   17.7760   12.0640 C   0  0  0  0  0  0  0  0  0  0  0  0
    6.8140   20.0700   11.0190 C   0  0  0  0  0  0  0  0  0  0  0  0
    5.9750   18.2090    8.8790 C   0  0  0  0  0  0  0  0  0  0  0  0
    3.6170   17.3630    8.5290 C   0  0  0  0  0  0  0  0  0  0  0  0
    3.3040   15.9760    7.9360 C   0  0  0  0  0  0  0  0  0  0  0  0
    4.0720   15.6710    6.6400 C   0  0  0  0  0  0  0  0  0  0  0  0
    3.3560   16.1940    5.3850 C   0  0  0  0  0  0  0  0  0  0  0  0
    4.2780   16.3120    4.1590 C   0  0  0  0  0  0  0  0  0  0  0  0
    5.1860   17.5570    4.1810 C   0  0  0  0  0  0  0  0  0  0  0  0
    6.6640   17.2670    4.4810 C   0  0  0  0  0  0  0  0  0  0  0  0
    7.4090   16.6500    3.2850 C   0  0  0  0  0  0  0  0  0  0  0  0
    8.8860   16.4090    3.6340 C   0  0  0  0  0  0  0  0  0  0  0  0
    9.6390   15.5880    2.5730 C   0  0  0  0  0  0  0  0  0  0  0  0
   10.3100   14.3210    3.1060 C   0  0  0  0  0  0  0  0  0  0  0  0
   11.7220   16.2300    7.3150 C   0  0  1  0  0  0  0  0  0  0  0  0
   11.0590   14.7880    5.3640 C   0  0  0  0  0  0  0  0  0  0  0  0
   13.0670   15.8850    8.0110 C   0  0  0  0  0  0  0  0  0  0  0  0
   13.4630   14.4420    7.8520 C   0  0  0  0  0  0  0  0  0  0  0  0
   12.7880   13.4370    8.5650 C   0  0  0  0  0  0  0  0  0  0  0  0
   13.1170   12.0920    8.3820 C   0  0  0  0  0  0  0  0  0  0  0  0
   14.1450   11.7330    7.5040 C   0  0  0  0  0  0  0  0  0  0  0  0
   14.8520   12.7290    6.8250 C   0  0  0  0  0  0  0  0  0  0  0  0
   14.5150   14.0740    6.9980 C   0  0  0  0  0  0  0  0  0  0  0  0
   15.0900   14.8370    6.4750 H   0  0  0  0  0  0  0  0  0  0  0  0
    8.7350   19.3750    8.9330 H   0  0  0  0  0  0  0  0  0  0  0  0
   11.4990   18.0170    8.5860 H   0  0  0  0  0  0  0  0  0  0  0  0
   12.9640   19.0430    7.4280 H   0  0  0  0  0  0  0  0  0  0  0  0
    9.9530   17.8990    5.8770 H   0  0  0  0  0  0  0  0  0  0  0  0
    5.1000   16.5300    9.8130 H   0  0  0  0  0  0  0  0  0  0  0  0
   12.5060   16.3110    5.3340 H   0  0  0  0  0  0  0  0  0  0  0  0
    7.4040   16.8480    9.8240 H   0  0  0  0  0  0  0  0  0  0  0  0
    8.3860   18.6230   11.3750 H   0  0  0  0  0  0  0  0  0  0  0  0
    6.9150   16.7270   12.0510 H   0  0  0  0  0  0  0  0  0  0  0  0
    7.3790   20.6580   10.2650 H   0  0  0  0  0  0  0  0  0  0  0  0
    3.6220   18.1380    7.7200 H   0  0  0  0  0  0  0  0  0  0  0  0
    2.2040   15.9260    7.7450 H   0  0  0  0  0  0  0  0  0  0  0  0
    4.1850   14.5670    6.5560 H   0  0  0  0  0  0  0  0  0  0  0  0
    2.9110   17.1950    5.5960 H   0  0  0  0  0  0  0  0  0  0  0  0
    3.6290   16.3710    3.2530 H   0  0  0  0  0  0  0  0  0  0  0  0
    4.8080   18.2700    4.9500 H   0  0  0  0  0  0  0  0  0  0  0  0
    6.7320   16.5820    5.3570 H   0  0  0  0  0  0  0  0  0  0  0  0
    7.3410   17.3360    2.4110 H   0  0  0  0  0  0  0  0  0  0  0  0
    8.9340   15.9010    4.6230 H   0  0  0  0  0  0  0  0  0  0  0  0
   10.4180   16.2440    2.1150 H   0  0  0  0  0  0  0  0  0  0  0  0
   10.8590   13.7860    2.2950 H   0  0  0  0  0  0  0  0  0  0  0  0
   10.9020   15.6590    7.8260 H   0  0  0  0  0  0  0  0  0  0  0  0
   12.9590   16.1330    9.1000 H   0  0  0  0  0  0  0  0  0  0  0  0
   12.0240   13.7140    9.2880 H   0  0  0  0  0  0  0  0  0  0  0  0
   12.5780   11.3230    8.9390 H   0  0  0  0  0  0  0  0  0  0  0  0
   14.4080   10.6830    7.3630 H   0  0  0  0  0  0  0  0  0  0  0  0
   15.6770   12.4570    6.1600 H   0  0  0  0  0  0  0  0  0  0  0  0
   13.8650   16.5520    7.6050 H   0  0  0  0  0  0  0  0  0  0  0  0
   10.0210   19.3310    6.9750 H   0  0  0  0  0  0  0  0  0  0  0  0
    5.4540   17.7730   11.8490 H   0  0  0  0  0  0  0  0  0  0  0  0
    6.9460   20.5360   12.0210 H   0  0  0  0  0  0  0  0  0  0  0  0
    2.8270   17.6230    9.2870 H   0  0  0  0  0  0  0  0  0  0  0  0
    3.5470   15.1920    8.6940 H   0  0  0  0  0  0  0  0  0  0  0  0
    5.0890   16.1240    6.7030 H   0  0  0  0  0  0  0  0  0  0  0  0
    2.5190   15.4980    5.1340 H   0  0  0  0  0  0  0  0  0  0  0  0
    4.9010   15.3960    4.0680 H   0  0  0  0  0  0  0  0  0  0  0  0
    5.1220   18.0580    3.1910 H   0  0  0  0  0  0  0  0  0  0  0  0
    7.1570   18.2290    4.7500 H   0  0  0  0  0  0  0  0  0  0  0  0
    6.9230   15.6900    3.0000 H   0  0  0  0  0  0  0  0  0  0  0  0
    9.3970   17.3970    3.7280 H   0  0  0  0  0  0  0  0  0  0  0  0
    8.9390   15.2840    1.7570 H   0  0  0  0  0  0  0  0  0  0  0  0
    9.5970   13.6490    3.6280 H   0  0  0  0  0  0  0  0  0  0  0  0
    5.7310   20.1060   10.7660 H   0  0  0  0  0  0  0  0  0  0  0  0
    6.6910   18.1930   13.0860 H   0  0  0  0  0  0  0  0  0  0  0  0
  1 38  1  0  0  0  0
  1 10  1  0  0  0  0
  2 39  1  1  0  0  0
  2 28  1  0  0  0  0
  3 40  1  0  0  0  0
  3  2  1  0  0  0  0
  4  2  1  0  0  0  0
  4  7  1  0  0  0  0
  5 42  1  0  0  0  0
  6 29  1  0  0  0  0
  7  1  1  0  0  0  0
  8 28  1  0  0  0  0
  9 16  2  0  0  0  0
 10 44  1  1  0  0  0
 10 12  1  0  0  0  0
 11  7  2  0  0  0  0
 12 45  1  0  0  0  0
 12 14  1  0  0  0  0
 14 46  1  0  0  0  0
 14 81  1  0  0  0  0
 15 12  1  0  0  0  0
 15 68  1  0  0  0  0
 16  5  1  0  0  0  0
 16 10  1  0  0  0  0
 17  5  1  0  0  0  0
 17 69  1  0  0  0  0
 18 70  1  0  0  0  0
 18 17  1  0  0  0  0
 19 71  1  0  0  0  0
 19 18  1  0  0  0  0
 20 51  1  0  0  0  0
 20 19  1  0  0  0  0
 21 22  1  0  0  0  0
 21 20  1  0  0  0  0
 22 53  1  0  0  0  0
 23 75  1  0  0  0  0
 23 22  1  0  0  0  0
 23 54  1  0  0  0  0
 24 23  1  0  0  0  0
 25 24  1  0  0  0  0
 25 56  1  0  0  0  0
 26 25  1  0  0  0  0
 26 27  1  0  0  0  0
 27 79  1  0  0  0  0
 27  6  1  0  0  0  0
 28 59  1  1  0  0  0
 28 30  1  0  0  0  0
 29 13  2  0  0  0  0
 29  8  1  0  0  0  0
 30 60  1  0  0  0  0
 31 30  1  0  0  0  0
 31 32  2  0  0  0  0
 32 33  1  0  0  0  0
 32 61  1  0  0  0  0
 33 62  1  0  0  0  0
 34 63  1  0  0  0  0
 34 33  2  0  0  0  0
 35 34  1  0  0  0  0
 36 35  2  0  0  0  0
 36 31  1  0  0  0  0
 37 36  1  0  0  0  0
 41  4  1  0  0  0  0
 43  8  1  0  0  0  0
 47 15  1  0  0  0  0
 48 17  1  0  0  0  0
 49 18  1  0  0  0  0
 50 19  1  0  0  0  0
 52 21  1  0  0  0  0
 55 24  1  0  0  0  0
 57 26  1  0  0  0  0
 58 27  1  0  0  0  0
 64 35  1  0  0  0  0
 65 30  1  0  0  0  0
 66  4  1  0  0  0  0
 67 14  1  0  0  0  0
 72 20  1  0  0  0  0
 73 21  1  0  0  0  0
 74 22  1  0  0  0  0
 76 24  1  0  0  0  0
 77 25  1  0  0  0  0
 78 26  1  0  0  0  0
 80 15  1  0  0  0  0
M  END
>  <IC50_NM>
2.5

>  <number_of_rotatable_bonds>
3

>  <charge>
0

>  <lm5_entropy_jk>
31.13362949117809

$$$$
