6RD0
 OpenBabel11252210453D

 40 42  0  0  0  0  0  0  0  0999 V2000
    7.9700   29.0210    4.9300 N   0  0  0  0  0  0  0  0  0  0  0  0
    7.7620   28.0560    3.8210 C   0  0  0  0  0  0  0  0  0  0  0  0
    6.2330   24.0560    5.6520 C   0  0  0  0  0  0  0  0  0  0  0  0
    7.0340   24.2870    4.3560 C   0  0  0  0  0  0  0  0  0  0  0  0
    8.3390   30.9960    6.9340 C   0  0  0  0  0  0  0  0  0  0  0  0
    8.6770   31.2410    5.5630 C   0  0  0  0  0  0  0  0  0  0  0  0
    8.5030   30.2870    4.6020 C   0  0  0  0  0  0  0  0  0  0  0  0
    7.5340   28.7340    6.2410 C   0  0  0  0  0  0  0  0  0  0  0  0
    7.8170   29.7810    7.2570 C   0  0  0  0  0  0  0  0  0  0  0  0
    8.0470   26.6030    4.2620 C   0  0  0  0  0  0  0  0  0  0  0  0
    9.1010   26.2620    4.7730 O   0  0  0  0  0  0  0  0  0  0  0  0
    7.0440   25.7070    3.9110 N   0  0  0  0  0  0  0  0  0  0  0  0
    6.9170   27.7100    6.5170 O   0  0  0  0  0  0  0  0  0  0  0  0
    7.4840   29.4820    8.5470 O   0  0  0  0  0  0  0  0  0  0  0  0
    4.7550   24.0250    5.4800 C   0  0  0  0  0  0  0  0  0  0  0  0
    3.8230   23.4050    6.4020 C   0  0  0  0  0  0  0  0  0  0  0  0
    2.4980   23.7810    5.9870 C   0  0  0  0  0  0  0  0  0  0  0  0
    3.9980   24.6720    4.5170 C   0  0  0  0  0  0  0  0  0  0  0  0
    2.6240   24.5490    4.8270 N   0  0  0  0  0  0  0  0  0  0  0  0
    3.9620   22.5980    7.5470 C   0  0  0  0  0  0  0  0  0  0  0  0
    2.8430   22.3270    8.3150 C   0  0  0  0  0  0  0  0  0  0  0  0
    1.5480   22.7490    7.9150 C   0  0  0  0  0  0  0  0  0  0  0  0
    1.3510   23.4500    6.7400 C   0  0  0  0  0  0  0  0  0  0  0  0
    6.7160   28.1920    3.4150 H   0  0  0  0  0  0  0  0  0  0  0  0
    8.4570   28.2950    2.9610 H   0  0  0  0  0  0  0  0  0  0  0  0
    6.4810   24.8740    6.3800 H   0  0  0  0  0  0  0  0  0  0  0  0
    6.5670   23.0810    6.0890 H   0  0  0  0  0  0  0  0  0  0  0  0
    8.0950   23.9490    4.5060 H   0  0  0  0  0  0  0  0  0  0  0  0
    6.5880   23.6770    3.5230 H   0  0  0  0  0  0  0  0  0  0  0  0
    8.5010   31.7890    7.6700 H   0  0  0  0  0  0  0  0  0  0  0  0
    9.0650   32.2270    5.2850 H   0  0  0  0  0  0  0  0  0  0  0  0
    8.7410   30.4790    3.5470 H   0  0  0  0  0  0  0  0  0  0  0  0
    6.1480   26.0700    3.5650 H   0  0  0  0  0  0  0  0  0  0  0  0
    7.0970   28.5520    8.5970 H   0  0  0  0  0  0  0  0  0  0  0  0
    4.2890   25.2110    3.6350 H   0  0  0  0  0  0  0  0  0  0  0  0
    1.8840   24.8490    4.1940 H   0  0  0  0  0  0  0  0  0  0  0  0
    4.9370   22.1850    7.8120 H   0  0  0  0  0  0  0  0  0  0  0  0
    2.9440   21.7820    9.2530 H   0  0  0  0  0  0  0  0  0  0  0  0
    0.6910   22.4960    8.5460 H   0  0  0  0  0  0  0  0  0  0  0  0
    0.3590   23.7450    6.3990 H   0  0  0  0  0  0  0  0  0  0  0  0
  1  2  1  0  0  0  0
  1  7  1  0  0  0  0
  1  8  1  0  0  0  0
  2 10  1  0  0  0  0
  2 24  1  0  0  0  0
  2 25  1  0  0  0  0
  3  4  1  0  0  0  0
  3 15  1  0  0  0  0
  3 26  1  0  0  0  0
  3 27  1  0  0  0  0
  4 12  1  0  0  0  0
  4 28  1  0  0  0  0
  4 29  1  0  0  0  0
  5  6  1  0  0  0  0
  5  9  2  0  0  0  0
  5 30  1  0  0  0  0
  6  7  2  0  0  0  0
  6 31  1  0  0  0  0
  7 32  1  0  0  0  0
  8 13  2  0  0  0  0
  8  9  1  0  0  0  0
  9 14  1  0  0  0  0
 10 12  1  0  0  0  0
 10 11  2  0  0  0  0
 12 33  1  0  0  0  0
 14 34  1  0  0  0  0
 15 18  2  0  0  0  0
 15 16  1  0  0  0  0
 16 17  2  0  0  0  0
 16 20  1  0  0  0  0
 17 19  1  0  0  0  0
 17 23  1  0  0  0  0
 18 19  1  0  0  0  0
 18 35  1  0  0  0  0
 19 36  1  0  0  0  0
 20 21  2  0  0  0  0
 20 37  1  0  0  0  0
 21 22  1  0  0  0  0
 21 38  1  0  0  0  0
 22 23  2  0  0  0  0
 22 39  1  0  0  0  0
 23 40  1  0  0  0  0
M  END
>  <lm5_entropy_jk>
24.137609081580525

>  <number_of_rotatable_bonds>
6

>  <deltaG_kcalmol>
-6.49

>  <charge>
0

$$$$
