3KXN
  ChemPy            3D                             0

 15 16  0  0  1  0  0  0  0  0999 V2000
   23.6880    6.6410   18.1200 C   0  0  0  0  0  0  0  0  0  0  0  0
   23.3760    6.0830   19.3660 C   0  0  0  0  0  0  0  0  0  0  0  0
   22.4870    6.6820   20.1930 C   0  0  0  0  0  0  0  0  0  0  0  0
   21.8060    7.8590   19.8750 C   0  0  0  0  0  0  0  0  0  0  0  0
   22.0500    8.4220   18.5980 C   0  0  0  0  0  0  0  0  0  0  0  0
   23.0020    7.8190   17.7270 C   0  0  0  0  0  0  0  0  0  0  0  0
   23.8660    4.9350   19.8900 N   0  0  0  0  0  0  0  0  0  0  0  0
   23.2290    4.8410   21.0780 C   0  0  0  0  0  0  0  0  0  0  0  0
   22.3700    5.9280   21.3150 N   0  0  0  0  0  0  0  0  0  0  0  0
   25.1270    5.6750   16.8510 I   0  0  0  0  0  0  0  0  0  0  0  0
   23.3960    8.6760   15.7930 I   0  0  0  0  0  0  0  0  0  0  0  0
   20.9520   10.1700   17.9730 I   0  0  0  0  0  0  0  0  0  0  0  0
   20.4570    8.7470   21.2940 I   0  0  0  0  0  0  0  0  0  0  0  0
   21.7430    6.0670   22.0980 H   0  0  0  0  0  0  0  0  0  0  0  0
   23.3280    4.0210   21.7910 H   0  0  0  0  0  0  0  0  0  0  0  0
  1  2  2  0  0  0  0
  1  6  1  0  0  0  0
  1 10  1  0  0  0  0
  2  3  1  0  0  0  0
  2  7  1  0  0  0  0
  3  4  2  0  0  0  0
  3  9  1  0  0  0  0
  4  5  1  0  0  0  0
  4 13  1  0  0  0  0
  5  6  2  0  0  0  0
  5 12  1  0  0  0  0
  6 11  1  0  0  0  0
  7  8  2  0  0  0  0
  8  9  1  0  0  0  0
  8 15  1  0  0  0  0
  9 14  1  0  0  0  0
M  END
>  <charge>
0

>  <Ki_NM>
23

>  <number_of_rotatable_bonds>
0

>  <lm5_entropy_jk>
7.2278

$$$$
