1M2R
 OpenBabel11252210453D

 30 32  0  0  1  0  0  0  0  0999 V2000
   20.6130    8.0770   22.9290 C   0  0  0  0  0  0  0  0  0  0  0  0
   19.7350    9.0340   23.3120 O   0  0  0  0  0  0  0  0  0  0  0  0
   21.1470    8.0390   21.6190 C   0  0  0  0  0  0  0  0  0  0  0  0
   22.0770    7.0120   21.2810 C   0  0  0  0  0  0  0  0  0  0  0  0
   22.4290    6.0470   22.2520 C   0  0  0  0  0  0  0  0  0  0  0  0
   23.2980    5.0490   21.9620 O   0  0  0  0  0  0  0  0  0  0  0  0
   21.8900    6.1010   23.5380 C   0  0  0  0  0  0  0  0  0  0  0  0
   20.9880    7.1230   23.8800 C   0  0  0  0  0  0  0  0  0  0  0  0
   22.6810    6.9450   19.9040 C   0  0  0  0  0  0  0  0  0  0  0  0
   23.3670    5.9800   19.5900 O   0  0  0  0  0  0  0  0  0  0  0  0
   22.4160    8.0830   18.9390 C   0  0  0  0  0  0  0  0  0  0  0  0
   21.4310    9.0820   19.2500 C   0  0  0  0  0  0  0  0  0  0  0  0
   20.7360    9.0710   20.6000 C   0  0  0  0  0  0  0  0  0  0  0  0
   19.8870    9.9050   20.8800 O   0  0  0  0  0  0  0  0  0  0  0  0
   21.1700   10.1110   18.3080 C   0  0  0  0  0  0  0  0  0  0  0  0
   20.2040   11.0660   18.5130 N   0  0  0  0  0  0  0  0  0  0  0  0
   21.9190   10.1910   17.1390 C   0  0  0  0  0  0  0  0  0  0  0  0
   22.8910    9.2260   16.8390 C   0  0  0  0  0  0  0  0  0  0  0  0
   23.1400    8.1760   17.7230 C   0  0  0  0  0  0  0  0  0  0  0  0
   24.1120    7.2700   17.3880 N   0  0  0  0  0  0  0  0  0  0  0  0
   21.7310   11.0050   16.4500 H   0  0  0  0  0  0  0  0  0  0  0  0
   23.4560    9.2930   15.9130 H   0  0  0  0  0  0  0  0  0  0  0  0
   22.1790    5.3450   24.2650 H   0  0  0  0  0  0  0  0  0  0  0  0
   20.5740    7.1850   24.8840 H   0  0  0  0  0  0  0  0  0  0  0  0
   24.4880    7.2380   16.4520 H   0  0  0  0  0  0  0  0  0  0  0  0
   19.5730    9.5810   22.5000 H   0  0  0  0  0  0  0  0  0  0  0  0
   23.4860    5.2040   21.0000 H   0  0  0  0  0  0  0  0  0  0  0  0
   19.7480   10.9530   19.4160 H   0  0  0  0  0  0  0  0  0  0  0  0
   24.1810    6.4560   17.9960 H   0  0  0  0  0  0  0  0  0  0  0  0
   20.3720   12.0130   18.1790 H   0  0  0  0  0  0  0  0  0  0  0  0
  1  2  1  0  0  0  0
  1  3  2  0  0  0  0
  1  8  1  0  0  0  0
  2 26  1  0  0  0  0
  3  4  1  0  0  0  0
  3 13  1  0  0  0  0
  4  5  2  0  0  0  0
  4  9  1  0  0  0  0
  5  6  1  0  0  0  0
  5  7  1  0  0  0  0
  6 27  1  0  0  0  0
  7  8  2  0  0  0  0
  7 23  1  0  0  0  0
  8 24  1  0  0  0  0
  9 10  2  0  0  0  0
  9 11  1  0  0  0  0
 11 12  2  0  0  0  0
 11 19  1  0  0  0  0
 12 13  1  0  0  0  0
 12 15  1  0  0  0  0
 13 14  2  0  0  0  0
 15 16  1  0  0  0  0
 15 17  2  0  0  0  0
 16 28  1  0  0  0  0
 16 30  1  0  0  0  0
 17 18  1  0  0  0  0
 17 21  1  0  0  0  0
 18 19  2  0  0  0  0
 18 22  1  0  0  0  0
 19 20  1  0  0  0  0
 20 25  1  0  0  0  0
 20 29  1  0  0  0  0
M  END
>  <Ki_NM>
350

>  <charge>
0

>  <number_of_rotatable_bonds>
0

>  <lm5_entropy_jk>
7.1054

$$$$
