1M2R
 OpenBabel11252210453D

 30 32  0  0  1  0  0  0  0  0999 V2000
   20.8600    7.7580   22.9990 C   0  0  0  0  0  0  0  0  0  0  0  0
   19.9880    8.6910   23.4490 O   0  0  0  0  0  0  0  0  0  0  0  0
   21.3450    7.7790   21.6720 C   0  0  0  0  0  0  0  0  0  0  0  0
   22.2750    6.7820   21.2550 C   0  0  0  0  0  0  0  0  0  0  0  0
   22.6710    5.7810   22.1700 C   0  0  0  0  0  0  0  0  0  0  0  0
   23.5350    4.8050   21.8010 O   0  0  0  0  0  0  0  0  0  0  0  0
   22.1740    5.7710   23.4750 C   0  0  0  0  0  0  0  0  0  0  0  0
   21.2710    6.7640   23.8920 C   0  0  0  0  0  0  0  0  0  0  0  0
   22.8250    6.7830   19.8540 C   0  0  0  0  0  0  0  0  0  0  0  0
   23.5210    5.8480   19.4750 O   0  0  0  0  0  0  0  0  0  0  0  0
   22.4970    7.9500   18.9440 C   0  0  0  0  0  0  0  0  0  0  0  0
   21.4960    8.9040   19.3300 C   0  0  0  0  0  0  0  0  0  0  0  0
   20.8680    8.8330   20.7100 C   0  0  0  0  0  0  0  0  0  0  0  0
   20.0140    9.6340   21.0640 O   0  0  0  0  0  0  0  0  0  0  0  0
   21.1530    9.9460   18.4320 C   0  0  0  0  0  0  0  0  0  0  0  0
   20.1660   10.8500   18.7180 N   0  0  0  0  0  0  0  0  0  0  0  0
   21.8380   10.0880   17.2260 C   0  0  0  0  0  0  0  0  0  0  0  0
   22.8520    9.1860   16.8680 C   0  0  0  0  0  0  0  0  0  0  0  0
   23.1770    8.1180   17.7110 C   0  0  0  0  0  0  0  0  0  0  0  0
   24.1810    7.2700   17.3240 N   0  0  0  0  0  0  0  0  0  0  0  0
   21.5780   10.9090   16.5680 H   0  0  0  0  0  0  0  0  0  0  0  0
   23.3910    9.3160   15.9320 H   0  0  0  0  0  0  0  0  0  0  0  0
   22.4900    4.9830   24.1570 H   0  0  0  0  0  0  0  0  0  0  0  0
   20.8780    6.7690   24.9060 H   0  0  0  0  0  0  0  0  0  0  0  0
   24.5470    7.2970   16.3840 H   0  0  0  0  0  0  0  0  0  0  0  0
   19.7920    9.2500   22.6520 H   0  0  0  0  0  0  0  0  0  0  0  0
   23.6870    5.0080   20.8420 H   0  0  0  0  0  0  0  0  0  0  0  0
   19.7860   10.7170   19.6540 H   0  0  0  0  0  0  0  0  0  0  0  0
   24.3020    6.4390   17.9000 H   0  0  0  0  0  0  0  0  0  0  0  0
   20.2740   11.8090   18.3940 H   0  0  0  0  0  0  0  0  0  0  0  0
  1  2  1  0  0  0  0
  1  3  2  0  0  0  0
  1  8  1  0  0  0  0
  2 26  1  0  0  0  0
  3  4  1  0  0  0  0
  3 13  1  0  0  0  0
  4  5  2  0  0  0  0
  4  9  1  0  0  0  0
  5  6  1  0  0  0  0
  5  7  1  0  0  0  0
  6 27  1  0  0  0  0
  7  8  2  0  0  0  0
  7 23  1  0  0  0  0
  8 24  1  0  0  0  0
  9 10  2  0  0  0  0
  9 11  1  0  0  0  0
 11 12  2  0  0  0  0
 11 19  1  0  0  0  0
 12 13  1  0  0  0  0
 12 15  1  0  0  0  0
 13 14  2  0  0  0  0
 15 16  1  0  0  0  0
 15 17  2  0  0  0  0
 16 28  1  0  0  0  0
 16 30  1  0  0  0  0
 17 18  1  0  0  0  0
 17 21  1  0  0  0  0
 18 19  2  0  0  0  0
 18 22  1  0  0  0  0
 19 20  1  0  0  0  0
 20 25  1  0  0  0  0
 20 29  1  0  0  0  0
M  END
>  <Ki_NM>
350

>  <charge>
0

>  <number_of_rotatable_bonds>
0

>  <lm5_entropy_jk>
7.1054

$$$$
