3r9n.pdb
 OpenBabel11252210453D

 42 44  0  0  1  0  0  0  0  0999 V2000
   67.8520  150.7420  -44.1460 N   0  3  0  0  0  0  0  0  0  0  0  0
   65.5650  154.6100  -50.0990 N   0  0  0  0  0  0  0  0  0  0  0  0
   64.0920  155.2500  -48.3140 N   0  0  0  0  0  0  0  0  0  0  0  0
   67.2110  153.5900  -51.5190 N   0  0  0  0  0  0  0  0  0  0  0  0
   68.1050  149.0440  -45.9440 C   0  0  0  0  0  0  0  0  0  0  0  0
   67.9810  150.3900  -45.5790 C   0  0  0  0  0  0  0  0  0  0  0  0
   67.9910  151.4140  -46.5410 C   0  0  0  0  0  0  0  0  0  0  0  0
   68.1640  151.0890  -47.8880 C   0  0  0  0  0  0  0  0  0  0  0  0
   68.3360  149.7460  -48.2580 C   0  0  0  0  0  0  0  0  0  0  0  0
   68.2850  148.7380  -47.2940 C   0  0  0  0  0  0  0  0  0  0  0  0
   68.1900  152.1190  -48.9950 C   0  0  0  0  0  0  0  0  0  0  0  0
   67.0400  152.9480  -49.1520 C   0  0  0  0  0  0  0  0  0  0  0  0
   66.6580  153.7200  -50.2780 C   0  0  0  0  0  0  0  0  0  0  0  0
   65.0580  154.4490  -48.8500 C   0  0  0  0  0  0  0  0  0  0  0  0
   63.5380  155.0470  -46.9390 C   0  0  0  0  0  0  0  0  0  0  0  0
   62.5690  153.8480  -46.8640 C   0  0  0  0  0  0  0  0  0  0  0  0
   62.0440  153.7170  -45.4260 C   0  0  0  0  0  0  0  0  0  0  0  0
   61.3490  155.0000  -44.9470 C   0  0  0  0  0  0  0  0  0  0  0  0
   62.2750  156.2180  -45.0930 C   0  0  0  0  0  0  0  0  0  0  0  0
   62.8050  156.3440  -46.5300 C   0  0  0  0  0  0  0  0  0  0  0  0
   68.4450  151.7340  -43.7520 O   0  5  0  0  0  0  0  0  0  0  0  0
   67.1740  150.0230  -43.4270 O   0  0  0  0  0  0  0  0  0  0  0  0
   69.1660  152.1640  -49.7360 O   0  0  0  0  0  0  0  0  0  0  0  0
   65.8610  153.0930  -47.8940 S   0  0  0  0  0  0  0  0  0  0  0  0
   68.0740  148.2400  -45.2010 H   0  0  0  0  0  0  0  0  0  0  0  0
   67.8780  152.4470  -46.2160 H   0  0  0  0  0  0  0  0  0  0  0  0
   63.4250  155.7010  -48.9800 H   0  0  0  0  0  0  0  0  0  0  0  0
   66.9450  154.2210  -52.3020 H   0  0  0  0  0  0  0  0  0  0  0  0
   68.0720  153.0470  -51.6290 H   0  0  0  0  0  0  0  0  0  0  0  0
   68.5220  149.4810  -49.3000 H   0  0  0  0  0  0  0  0  0  0  0  0
   68.3840  147.6960  -47.5900 H   0  0  0  0  0  0  0  0  0  0  0  0
   64.3970  154.8780  -46.2450 H   0  0  0  0  0  0  0  0  0  0  0  0
   63.0890  152.9060  -47.1460 H   0  0  0  0  0  0  0  0  0  0  0  0
   61.7320  154.0220  -47.5760 H   0  0  0  0  0  0  0  0  0  0  0  0
   62.9040  153.4940  -44.7470 H   0  0  0  0  0  0  0  0  0  0  0  0
   61.3370  152.8650  -45.3600 H   0  0  0  0  0  0  0  0  0  0  0  0
   61.0610  154.8840  -43.8760 H   0  0  0  0  0  0  0  0  0  0  0  0
   60.4290  155.1860  -45.5460 H   0  0  0  0  0  0  0  0  0  0  0  0
   61.7110  157.1460  -44.8340 H   0  0  0  0  0  0  0  0  0  0  0  0
   63.1330  156.1220  -44.3860 H   0  0  0  0  0  0  0  0  0  0  0  0
   61.9510  156.5240  -47.2280 H   0  0  0  0  0  0  0  0  0  0  0  0
   63.4940  157.2120  -46.5790 H   0  0  0  0  0  0  0  0  0  0  0  0
  1  6  1  0  0  0  0
  1 21  1  0  0  0  0
  1 22  2  0  0  0  0
  2 13  1  0  0  0  0
  2 14  2  0  0  0  0
  3 14  1  0  0  0  0
  3 15  1  0  0  0  0
  3 27  1  0  0  0  0
  4 13  1  0  0  0  0
  4 28  1  0  0  0  0
  4 29  1  0  0  0  0
  5  6  2  0  0  0  0
  5 10  1  0  0  0  0
  5 25  1  0  0  0  0
  6  7  1  0  0  0  0
  7  8  2  0  0  0  0
  7 26  1  0  0  0  0
  8  9  1  0  0  0  0
  9 10  2  0  0  0  0
  9 30  1  0  0  0  0
 10 31  1  0  0  0  0
 11  8  1  0  0  0  0
 11 12  1  0  0  0  0
 11 23  2  0  0  0  0
 12 13  2  0  0  0  0
 12 24  1  0  0  0  0
 14 24  1  0  0  0  0
 15 16  1  0  0  0  0
 15 20  1  0  0  0  0
 15 32  1  0  0  0  0
 16 17  1  0  0  0  0
 16 33  1  0  0  0  0
 16 34  1  0  0  0  0
 17 18  1  0  0  0  0
 17 35  1  0  0  0  0
 17 36  1  0  0  0  0
 18 19  1  0  0  0  0
 18 37  1  0  0  0  0
 18 38  1  0  0  0  0
 19 20  1  0  0  0  0
 19 39  1  0  0  0  0
 19 40  1  0  0  0  0
 20 41  1  0  0  0  0
 20 42  1  0  0  0  0
M  CHG  2   1   1  21  -1
M  END
>  <lm5_entropy_jk>
22.585594734129973

>  <number_of_rotatable_bonds>
5

>  <IC50_NM>
1400

>  <charge>
0

$$$$
