6QBH
 OpenBabel11252210453D

 81 82  0  0  1  0  0  0  0  0999 V2000
    8.3670   18.3570    8.9090 N   0  0  0  0  0  0  0  0  0  0  0  0
   11.2640   17.8760    7.5470 C   0  0  1  0  0  0  0  0  0  0  0  0
   12.1300   18.6970    6.7730 O   0  0  0  0  0  0  0  0  0  0  0  0
    9.8580   18.1830    7.0080 C   0  0  0  0  0  0  0  0  0  0  0  0
    4.8070   17.3650    9.3080 N   0  0  0  0  0  0  0  0  0  0  0  0
   11.2360   15.2090    4.0060 O   0  0  0  0  0  0  0  0  0  0  0  0
    8.7760   17.6050    7.8400 C   0  0  0  0  0  0  0  0  0  0  0  0
   11.8240   15.9580    6.0010 N   0  0  0  0  0  0  0  0  0  0  0  0
    5.7370   19.1000    8.1600 O   0  0  0  0  0  0  0  0  0  0  0  0
    7.1860   17.9400    9.7320 C   0  0  1  0  0  0  0  0  0  0  0  0
    8.2940   16.5240    7.5910 O   0  0  0  0  0  0  0  0  0  0  0  0
    7.2590   18.5310   11.1690 C   0  0  0  0  0  0  0  0  0  0  0  0
   10.1770   14.3600    5.8680 O   0  0  0  0  0  0  0  0  0  0  0  0
    6.2880   17.8540   12.1410 C   0  0  0  0  0  0  0  0  0  0  0  0
    6.9610   20.0350   11.1930 C   0  0  0  0  0  0  0  0  0  0  0  0
    5.8570   18.2050    8.9800 C   0  0  0  0  0  0  0  0  0  0  0  0
    3.4900   17.3500    8.6350 C   0  0  0  0  0  0  0  0  0  0  0  0
    3.1930   15.9400    8.0690 C   0  0  0  0  0  0  0  0  0  0  0  0
    3.9940   15.6710    6.7700 C   0  0  0  0  0  0  0  0  0  0  0  0
    3.1930   16.0950    5.5130 C   0  0  0  0  0  0  0  0  0  0  0  0
    4.1050   16.2640    4.2700 C   0  0  0  0  0  0  0  0  0  0  0  0
    4.8590   17.6240    4.2770 C   0  0  0  0  0  0  0  0  0  0  0  0
    6.3750   17.4760    4.5350 C   0  0  0  0  0  0  0  0  0  0  0  0
    7.1380   16.8930    3.3240 C   0  0  0  0  0  0  0  0  0  0  0  0
    8.6180   16.7100    3.7040 C   0  0  0  0  0  0  0  0  0  0  0  0
    9.4470   16.0270    2.5870 C   0  0  0  0  0  0  0  0  0  0  0  0
   10.2330   14.7700    3.0610 C   0  0  0  0  0  0  0  0  0  0  0  0
   11.6870   16.3570    7.4100 C   0  0  1  0  0  0  0  0  0  0  0  0
   11.0050   15.0900    5.3450 C   0  0  0  0  0  0  0  0  0  0  0  0
   13.0270   16.0700    8.1480 C   0  0  0  0  0  0  0  0  0  0  0  0
   13.5100   14.6280    8.0570 C   0  0  0  0  0  0  0  0  0  0  0  0
   12.7740   13.5970    8.6550 C   0  0  0  0  0  0  0  0  0  0  0  0
   13.2230   12.2660    8.6030 C   0  0  0  0  0  0  0  0  0  0  0  0
   14.4270   11.9620    7.9470 C   0  0  0  0  0  0  0  0  0  0  0  0
   15.1770   12.9880    7.3500 C   0  0  0  0  0  0  0  0  0  0  0  0
   14.7200   14.3180    7.4130 C   0  0  0  0  0  0  0  0  0  0  0  0
   15.3050   15.1090    6.9540 H   0  0  0  0  0  0  0  0  0  0  0  0
    8.7330   19.3030    8.9870 H   0  0  0  0  0  0  0  0  0  0  0  0
   11.3160   18.1610    8.6120 H   0  0  0  0  0  0  0  0  0  0  0  0
   12.8460   19.0280    7.3780 H   0  0  0  0  0  0  0  0  0  0  0  0
    9.7420   17.7500    6.0170 H   0  0  0  0  0  0  0  0  0  0  0  0
    5.0330   16.6040    9.9440 H   0  0  0  0  0  0  0  0  0  0  0  0
   12.4380   16.4790    5.3940 H   0  0  0  0  0  0  0  0  0  0  0  0
    7.2040   16.8520    9.8350 H   0  0  0  0  0  0  0  0  0  0  0  0
    8.2830   18.3510   11.5360 H   0  0  0  0  0  0  0  0  0  0  0  0
    6.4290   16.7670   12.1520 H   0  0  0  0  0  0  0  0  0  0  0  0
    7.6020   20.5760   10.4880 H   0  0  0  0  0  0  0  0  0  0  0  0
    3.4720   18.0910    7.8180 H   0  0  0  0  0  0  0  0  0  0  0  0
    2.1150   15.8300    7.8790 H   0  0  0  0  0  0  0  0  0  0  0  0
    4.2540   14.6070    6.6940 H   0  0  0  0  0  0  0  0  0  0  0  0
    2.6440   17.0290    5.6990 H   0  0  0  0  0  0  0  0  0  0  0  0
    3.4910   16.2080    3.3600 H   0  0  0  0  0  0  0  0  0  0  0  0
    4.4380   18.2870    5.0460 H   0  0  0  0  0  0  0  0  0  0  0  0
    6.5440   16.8510    5.4230 H   0  0  0  0  0  0  0  0  0  0  0  0
    7.0380   17.5540    2.4520 H   0  0  0  0  0  0  0  0  0  0  0  0
    8.6690   16.1380    4.6410 H   0  0  0  0  0  0  0  0  0  0  0  0
   10.1600   16.7530    2.1770 H   0  0  0  0  0  0  0  0  0  0  0  0
   10.7190   14.2920    2.1970 H   0  0  0  0  0  0  0  0  0  0  0  0
   10.8910   15.7460    7.8660 H   0  0  0  0  0  0  0  0  0  0  0  0
   12.9200   16.3430    9.2040 H   0  0  0  0  0  0  0  0  0  0  0  0
   11.8520   13.8340    9.1700 H   0  0  0  0  0  0  0  0  0  0  0  0
   12.6420   11.4750    9.0760 H   0  0  0  0  0  0  0  0  0  0  0  0
   14.7780   10.9310    7.9040 H   0  0  0  0  0  0  0  0  0  0  0  0
   16.1130   12.7560    6.8400 H   0  0  0  0  0  0  0  0  0  0  0  0
   13.7930   16.7440    7.7540 H   0  0  0  0  0  0  0  0  0  0  0  0
    9.6770   19.2530    6.9300 H   0  0  0  0  0  0  0  0  0  0  0  0
    5.2410   18.0560   11.8820 H   0  0  0  0  0  0  0  0  0  0  0  0
    7.0940   20.4630   12.1940 H   0  0  0  0  0  0  0  0  0  0  0  0
    2.7100   17.6430    9.3550 H   0  0  0  0  0  0  0  0  0  0  0  0
    3.4340   15.1810    8.8270 H   0  0  0  0  0  0  0  0  0  0  0  0
    4.9570   16.2010    6.8100 H   0  0  0  0  0  0  0  0  0  0  0  0
    2.4230   15.3390    5.3040 H   0  0  0  0  0  0  0  0  0  0  0  0
    4.8100   15.4240    4.2000 H   0  0  0  0  0  0  0  0  0  0  0  0
    4.7030   18.1460    3.3260 H   0  0  0  0  0  0  0  0  0  0  0  0
    6.7910   18.4590    4.7900 H   0  0  0  0  0  0  0  0  0  0  0  0
    6.7040   15.9280    3.0340 H   0  0  0  0  0  0  0  0  0  0  0  0
    9.0610   17.6910    3.9190 H   0  0  0  0  0  0  0  0  0  0  0  0
    8.7950   15.7730    1.7480 H   0  0  0  0  0  0  0  0  0  0  0  0
    9.5600   14.0210    3.5080 H   0  0  0  0  0  0  0  0  0  0  0  0
    5.9250   20.2340   10.8900 H   0  0  0  0  0  0  0  0  0  0  0  0
    6.4380   18.2190   13.1660 H   0  0  0  0  0  0  0  0  0  0  0  0
  1 38  1  0  0  0  0
  1 10  1  0  0  0  0
  2 39  1  1  0  0  0
  2 28  1  0  0  0  0
  3 40  1  0  0  0  0
  3  2  1  0  0  0  0
  4  2  1  0  0  0  0
  4  7  1  0  0  0  0
  5 42  1  0  0  0  0
  6 29  1  0  0  0  0
  7  1  1  0  0  0  0
  8 28  1  0  0  0  0
  9 16  2  0  0  0  0
 10 44  1  1  0  0  0
 10 12  1  0  0  0  0
 11  7  2  0  0  0  0
 12 45  1  0  0  0  0
 12 14  1  0  0  0  0
 14 46  1  0  0  0  0
 14 81  1  0  0  0  0
 15 12  1  0  0  0  0
 15 68  1  0  0  0  0
 16  5  1  0  0  0  0
 16 10  1  0  0  0  0
 17  5  1  0  0  0  0
 17 69  1  0  0  0  0
 18 70  1  0  0  0  0
 18 17  1  0  0  0  0
 19 71  1  0  0  0  0
 19 18  1  0  0  0  0
 20 51  1  0  0  0  0
 20 19  1  0  0  0  0
 21 22  1  0  0  0  0
 21 20  1  0  0  0  0
 22 53  1  0  0  0  0
 23 75  1  0  0  0  0
 23 22  1  0  0  0  0
 23 54  1  0  0  0  0
 24 23  1  0  0  0  0
 25 24  1  0  0  0  0
 25 56  1  0  0  0  0
 26 25  1  0  0  0  0
 26 27  1  0  0  0  0
 27 79  1  0  0  0  0
 27  6  1  0  0  0  0
 28 59  1  1  0  0  0
 28 30  1  0  0  0  0
 29 13  2  0  0  0  0
 29  8  1  0  0  0  0
 30 60  1  0  0  0  0
 31 30  1  0  0  0  0
 31 32  2  0  0  0  0
 32 33  1  0  0  0  0
 32 61  1  0  0  0  0
 33 62  1  0  0  0  0
 34 63  1  0  0  0  0
 34 33  2  0  0  0  0
 35 34  1  0  0  0  0
 36 35  2  0  0  0  0
 36 31  1  0  0  0  0
 37 36  1  0  0  0  0
 41  4  1  0  0  0  0
 43  8  1  0  0  0  0
 47 15  1  0  0  0  0
 48 17  1  0  0  0  0
 49 18  1  0  0  0  0
 50 19  1  0  0  0  0
 52 21  1  0  0  0  0
 55 24  1  0  0  0  0
 57 26  1  0  0  0  0
 58 27  1  0  0  0  0
 64 35  1  0  0  0  0
 65 30  1  0  0  0  0
 66  4  1  0  0  0  0
 67 14  1  0  0  0  0
 72 20  1  0  0  0  0
 73 21  1  0  0  0  0
 74 22  1  0  0  0  0
 76 24  1  0  0  0  0
 77 25  1  0  0  0  0
 78 26  1  0  0  0  0
 80 15  1  0  0  0  0
M  END
>  <IC50_NM>
2.5

>  <number_of_rotatable_bonds>
3

>  <charge>
0

>  <lm5_entropy_jk>
31.13362949117809

$$$$
