6QBH
 OpenBabel11252210453D

 81 82  0  0  1  0  0  0  0  0999 V2000
    8.2670   18.3600    8.8610 N   0  0  0  0  0  0  0  0  0  0  0  0
   11.2080   17.8600    7.5280 C   0  0  1  0  0  0  0  0  0  0  0  0
   12.0850   18.7020    6.7920 O   0  0  0  0  0  0  0  0  0  0  0  0
    9.8000   18.1900    6.9950 C   0  0  0  0  0  0  0  0  0  0  0  0
    4.6970   17.4610    9.2520 N   0  0  0  0  0  0  0  0  0  0  0  0
   10.8140   15.1730    3.9970 O   0  0  0  0  0  0  0  0  0  0  0  0
    8.7210   17.5930    7.8210 C   0  0  0  0  0  0  0  0  0  0  0  0
   11.6200   15.9730    5.9050 N   0  0  0  0  0  0  0  0  0  0  0  0
    5.6200   19.3090    8.2990 O   0  0  0  0  0  0  0  0  0  0  0  0
    7.0880   17.9460    9.6900 C   0  0  1  0  0  0  0  0  0  0  0  0
    8.2770   16.4920    7.5840 O   0  0  0  0  0  0  0  0  0  0  0  0
    7.2390   18.4270   11.1620 C   0  0  0  0  0  0  0  0  0  0  0  0
   10.1960   14.1690    5.9660 O   0  0  0  0  0  0  0  0  0  0  0  0
    6.2470   17.7500   12.1150 C   0  0  0  0  0  0  0  0  0  0  0  0
    7.0450   19.9440   11.2930 C   0  0  0  0  0  0  0  0  0  0  0  0
    5.7480   18.3260    9.0120 C   0  0  0  0  0  0  0  0  0  0  0  0
    3.4340   17.4690    8.4840 C   0  0  0  0  0  0  0  0  0  0  0  0
    3.2450   16.1220    7.7440 C   0  0  0  0  0  0  0  0  0  0  0  0
    4.3070   15.8770    6.6360 C   0  0  0  0  0  0  0  0  0  0  0  0
    4.0080   16.6670    5.3340 C   0  0  0  0  0  0  0  0  0  0  0  0
    5.1350   16.4760    4.2850 C   0  0  0  0  0  0  0  0  0  0  0  0
    6.3320   17.4200    4.5620 C   0  0  0  0  0  0  0  0  0  0  0  0
    7.6880   16.9350    3.9840 C   0  0  0  0  0  0  0  0  0  0  0  0
    7.6190   16.4070    2.5270 C   0  0  0  0  0  0  0  0  0  0  0  0
    9.0220   16.3590    1.8510 C   0  0  0  0  0  0  0  0  0  0  0  0
    9.6980   14.9590    1.8450 C   0  0  0  0  0  0  0  0  0  0  0  0
    9.8940   14.3540    3.2490 C   0  0  0  0  0  0  0  0  0  0  0  0
   11.6200   16.3470    7.3310 C   0  0  1  0  0  0  0  0  0  0  0  0
   10.8280   15.0130    5.3480 C   0  0  0  0  0  0  0  0  0  0  0  0
   13.0130   16.0420    7.9580 C   0  0  0  0  0  0  0  0  0  0  0  0
   13.4670   14.5910    7.8570 C   0  0  0  0  0  0  0  0  0  0  0  0
   12.6940   13.5640    8.4160 C   0  0  0  0  0  0  0  0  0  0  0  0
   13.1140   12.2250    8.3470 C   0  0  0  0  0  0  0  0  0  0  0  0
   14.3270   11.9070    7.7180 C   0  0  0  0  0  0  0  0  0  0  0  0
   15.1230   12.9300    7.1740 C   0  0  0  0  0  0  0  0  0  0  0  0
   14.6930   14.2670    7.2530 C   0  0  0  0  0  0  0  0  0  0  0  0
   15.3160   15.0530    6.8370 H   0  0  0  0  0  0  0  0  0  0  0  0
    8.6280   19.3080    8.9350 H   0  0  0  0  0  0  0  0  0  0  0  0
   11.2660   18.1030    8.6050 H   0  0  0  0  0  0  0  0  0  0  0  0
   12.7280   19.0910    7.4420 H   0  0  0  0  0  0  0  0  0  0  0  0
    9.6650   17.7970    5.9870 H   0  0  0  0  0  0  0  0  0  0  0  0
    4.9190   16.6380    9.8080 H   0  0  0  0  0  0  0  0  0  0  0  0
   12.0810   16.5680    5.2330 H   0  0  0  0  0  0  0  0  0  0  0  0
    7.0500   16.8550    9.7150 H   0  0  0  0  0  0  0  0  0  0  0  0
    8.2560   18.1530   11.4870 H   0  0  0  0  0  0  0  0  0  0  0  0
    6.3360   16.6580   12.0760 H   0  0  0  0  0  0  0  0  0  0  0  0
    7.6970   20.4890   10.6010 H   0  0  0  0  0  0  0  0  0  0  0  0
    3.4350   18.2980    7.7580 H   0  0  0  0  0  0  0  0  0  0  0  0
    2.2350   16.0760    7.3100 H   0  0  0  0  0  0  0  0  0  0  0  0
    4.3360   14.8060    6.4020 H   0  0  0  0  0  0  0  0  0  0  0  0
    3.8840   17.7380    5.5510 H   0  0  0  0  0  0  0  0  0  0  0  0
    4.7470   16.6810    3.2770 H   0  0  0  0  0  0  0  0  0  0  0  0
    6.4490   17.5570    5.6470 H   0  0  0  0  0  0  0  0  0  0  0  0
    8.1160   16.1720    4.6490 H   0  0  0  0  0  0  0  0  0  0  0  0
    6.9670   17.0730    1.9460 H   0  0  0  0  0  0  0  0  0  0  0  0
    9.7020   17.0900    2.3130 H   0  0  0  0  0  0  0  0  0  0  0  0
   10.6750   15.0230    1.3480 H   0  0  0  0  0  0  0  0  0  0  0  0
   10.2710   13.3270    3.1840 H   0  0  0  0  0  0  0  0  0  0  0  0
   10.8610   15.7340    7.8450 H   0  0  0  0  0  0  0  0  0  0  0  0
   13.0010   16.3340    9.0150 H   0  0  0  0  0  0  0  0  0  0  0  0
   11.7640   13.8110    8.9120 H   0  0  0  0  0  0  0  0  0  0  0  0
   12.5010   11.4380    8.7860 H   0  0  0  0  0  0  0  0  0  0  0  0
   14.6560   10.8700    7.6600 H   0  0  0  0  0  0  0  0  0  0  0  0
   16.0710   12.6880    6.6930 H   0  0  0  0  0  0  0  0  0  0  0  0
   13.7540   16.6930    7.4880 H   0  0  0  0  0  0  0  0  0  0  0  0
    9.6270   19.2640    6.9530 H   0  0  0  0  0  0  0  0  0  0  0  0
    5.2070   18.0130   11.8800 H   0  0  0  0  0  0  0  0  0  0  0  0
    7.2370   20.2960   12.3150 H   0  0  0  0  0  0  0  0  0  0  0  0
    2.5910   17.6480    9.1700 H   0  0  0  0  0  0  0  0  0  0  0  0
    3.2850   15.3040    8.4790 H   0  0  0  0  0  0  0  0  0  0  0  0
    5.3150   16.1240    7.0040 H   0  0  0  0  0  0  0  0  0  0  0  0
    3.0510   16.3310    4.9110 H   0  0  0  0  0  0  0  0  0  0  0  0
    5.4590   15.4310    4.2650 H   0  0  0  0  0  0  0  0  0  0  0  0
    6.0980   18.4170    4.1650 H   0  0  0  0  0  0  0  0  0  0  0  0
    8.3900   17.7770    4.0260 H   0  0  0  0  0  0  0  0  0  0  0  0
    7.1330   15.4240    2.4940 H   0  0  0  0  0  0  0  0  0  0  0  0
    8.9090   16.6830    0.8090 H   0  0  0  0  0  0  0  0  0  0  0  0
    9.1050   14.2680    1.2320 H   0  0  0  0  0  0  0  0  0  0  0  0
    8.9260   14.3120    3.7560 H   0  0  0  0  0  0  0  0  0  0  0  0
    6.0160   20.2300   11.0420 H   0  0  0  0  0  0  0  0  0  0  0  0
    6.4260   18.0560   13.1540 H   0  0  0  0  0  0  0  0  0  0  0  0
  1 38  1  0  0  0  0
  1 10  1  0  0  0  0
  2 39  1  1  0  0  0
  2 28  1  0  0  0  0
  3 40  1  0  0  0  0
  3  2  1  0  0  0  0
  4  2  1  0  0  0  0
  4  7  1  0  0  0  0
  5 42  1  0  0  0  0
  6 29  1  0  0  0  0
  7  1  1  0  0  0  0
  8 28  1  0  0  0  0
  9 16  2  0  0  0  0
 10 44  1  1  0  0  0
 10 12  1  0  0  0  0
 11  7  2  0  0  0  0
 12 45  1  0  0  0  0
 12 14  1  0  0  0  0
 14 46  1  0  0  0  0
 14 81  1  0  0  0  0
 15 12  1  0  0  0  0
 15 68  1  0  0  0  0
 16  5  1  0  0  0  0
 16 10  1  0  0  0  0
 17  5  1  0  0  0  0
 17 69  1  0  0  0  0
 18 70  1  0  0  0  0
 18 17  1  0  0  0  0
 19 71  1  0  0  0  0
 19 18  1  0  0  0  0
 20 51  1  0  0  0  0
 20 19  1  0  0  0  0
 21 22  1  0  0  0  0
 21 20  1  0  0  0  0
 22 53  1  0  0  0  0
 23 75  1  0  0  0  0
 23 22  1  0  0  0  0
 23 54  1  0  0  0  0
 24 23  1  0  0  0  0
 25 24  1  0  0  0  0
 25 56  1  0  0  0  0
 26 25  1  0  0  0  0
 26 27  1  0  0  0  0
 27 79  1  0  0  0  0
 27  6  1  0  0  0  0
 28 59  1  1  0  0  0
 28 30  1  0  0  0  0
 29 13  2  0  0  0  0
 29  8  1  0  0  0  0
 30 60  1  0  0  0  0
 31 30  1  0  0  0  0
 31 32  2  0  0  0  0
 32 33  1  0  0  0  0
 32 61  1  0  0  0  0
 33 62  1  0  0  0  0
 34 63  1  0  0  0  0
 34 33  2  0  0  0  0
 35 34  1  0  0  0  0
 36 35  2  0  0  0  0
 36 31  1  0  0  0  0
 37 36  1  0  0  0  0
 41  4  1  0  0  0  0
 43  8  1  0  0  0  0
 47 15  1  0  0  0  0
 48 17  1  0  0  0  0
 49 18  1  0  0  0  0
 50 19  1  0  0  0  0
 52 21  1  0  0  0  0
 55 24  1  0  0  0  0
 57 26  1  0  0  0  0
 58 27  1  0  0  0  0
 64 35  1  0  0  0  0
 65 30  1  0  0  0  0
 66  4  1  0  0  0  0
 67 14  1  0  0  0  0
 72 20  1  0  0  0  0
 73 21  1  0  0  0  0
 74 22  1  0  0  0  0
 76 24  1  0  0  0  0
 77 25  1  0  0  0  0
 78 26  1  0  0  0  0
 80 15  1  0  0  0  0
M  END
>  <IC50_NM>
2.5

>  <number_of_rotatable_bonds>
3

>  <charge>
0

>  <lm5_entropy_jk>
31.13362949117809

$$$$
