1F0Q
 OpenBabel11252210453D

 30 32  0  0  1  0  0  0  0  0999 V2000
   21.1810    4.9750   23.5780 C   0  0  0  0  0  0  0  0  0  0  0  0
   20.2960    5.7640   24.2160 O   0  0  0  0  0  0  0  0  0  0  0  0
   21.3890    3.7080   24.0750 C   0  0  0  0  0  0  0  0  0  0  0  0
   22.2890    2.8670   23.4650 C   0  0  0  0  0  0  0  0  0  0  0  0
   22.4810    1.6320   23.9700 O   0  0  0  0  0  0  0  0  0  0  0  0
   22.9780    3.2820   22.3370 C   0  0  0  0  0  0  0  0  0  0  0  0
   22.7740    4.5660   21.7990 C   0  0  0  0  0  0  0  0  0  0  0  0
   23.5230    5.0040   20.5540 C   0  0  0  0  0  0  0  0  0  0  0  0
   24.4420    4.3400   20.0880 O   0  0  0  0  0  0  0  0  0  0  0  0
   23.0680    6.2970   19.9120 C   0  0  0  0  0  0  0  0  0  0  0  0
   23.5970    6.6880   18.6660 C   0  0  0  0  0  0  0  0  0  0  0  0
   23.1590    7.8410   18.0330 C   0  0  0  0  0  0  0  0  0  0  0  0
   23.7530    8.2480   16.7270 C   0  0  0  0  0  0  0  0  0  0  0  0
   22.1720    8.6150   18.6110 C   0  0  0  0  0  0  0  0  0  0  0  0
   21.6510    8.2700   19.8540 C   0  0  0  0  0  0  0  0  0  0  0  0
   20.6670    9.0550   20.3420 O   0  0  0  0  0  0  0  0  0  0  0  0
   22.1140    7.1320   20.5380 C   0  0  0  0  0  0  0  0  0  0  0  0
   21.6320    6.8000   21.9180 C   0  0  0  0  0  0  0  0  0  0  0  0
   21.1400    7.6330   22.6590 O   0  0  0  0  0  0  0  0  0  0  0  0
   21.8590    5.4220   22.4440 C   0  0  0  0  0  0  0  0  0  0  0  0
   20.4870    9.7110   19.6510 H   0  0  0  0  0  0  0  0  0  0  0  0
   20.4470    6.6260   23.7580 H   0  0  0  0  0  0  0  0  0  0  0  0
   20.8550    3.3780   24.9570 H   0  0  0  0  0  0  0  0  0  0  0  0
   23.1260    1.1920   23.3860 H   0  0  0  0  0  0  0  0  0  0  0  0
   23.6740    2.6030   21.8510 H   0  0  0  0  0  0  0  0  0  0  0  0
   24.3530    6.0770   18.1800 H   0  0  0  0  0  0  0  0  0  0  0  0
   24.7470    8.6820   16.8840 H   0  0  0  0  0  0  0  0  0  0  0  0
   21.8250    9.5000   18.0890 H   0  0  0  0  0  0  0  0  0  0  0  0
   23.1440    8.9990   16.2100 H   0  0  0  0  0  0  0  0  0  0  0  0
   23.8580    7.3880   16.0560 H   0  0  0  0  0  0  0  0  0  0  0  0
  1  2  1  0  0  0  0
  1  3  2  0  0  0  0
  1 20  1  0  0  0  0
  2 22  1  0  0  0  0
  3  4  1  0  0  0  0
  3 23  1  0  0  0  0
  4  5  1  0  0  0  0
  4  6  2  0  0  0  0
  5 24  1  0  0  0  0
  6  7  1  0  0  0  0
  6 25  1  0  0  0  0
  7  8  1  0  0  0  0
  7 20  2  0  0  0  0
  8  9  2  0  0  0  0
  8 10  1  0  0  0  0
 10 11  1  0  0  0  0
 10 17  2  0  0  0  0
 11 12  2  0  0  0  0
 11 26  1  0  0  0  0
 12 13  1  0  0  0  0
 12 14  1  0  0  0  0
 13 27  1  0  0  0  0
 13 29  1  0  0  0  0
 13 30  1  0  0  0  0
 14 15  2  0  0  0  0
 14 28  1  0  0  0  0
 15 16  1  0  0  0  0
 15 17  1  0  0  0  0
 16 21  1  0  0  0  0
 17 18  1  0  0  0  0
 18 19  2  0  0  0  0
 18 20  1  0  0  0  0
M  END
>  <Ki_NM>
1900

>  <charge>
0

>  <number_of_rotatable_bonds>
0

>  <lm5_entropy_jk>
16.12636398139741

$$$$
