1F0Q
 OpenBabel11252210453D

 30 32  0  0  1  0  0  0  0  0999 V2000
   22.1980    7.0200   21.1580 C   0  0  0  0  0  0  0  0  0  0  0  0
   21.5100    8.1190   21.5160 O   0  0  0  0  0  0  0  0  0  0  0  0
   22.3590    6.0360   22.1070 C   0  0  0  0  0  0  0  0  0  0  0  0
   23.0240    4.8770   21.7930 C   0  0  0  0  0  0  0  0  0  0  0  0
   23.1170    3.8980   22.7140 O   0  0  0  0  0  0  0  0  0  0  0  0
   23.5900    4.7180   20.5410 C   0  0  0  0  0  0  0  0  0  0  0  0
   23.4630    5.7160   19.5560 C   0  0  0  0  0  0  0  0  0  0  0  0
   24.1030    5.5240   18.1940 C   0  0  0  0  0  0  0  0  0  0  0  0
   24.7680    4.5280   17.9280 O   0  0  0  0  0  0  0  0  0  0  0  0
   23.8890    6.6230   17.1750 C   0  0  0  0  0  0  0  0  0  0  0  0
   24.4180    6.4780   15.8750 C   0  0  0  0  0  0  0  0  0  0  0  0
   24.2580    7.4760   14.9270 C   0  0  0  0  0  0  0  0  0  0  0  0
   24.7940    7.3390   13.5430 C   0  0  0  0  0  0  0  0  0  0  0  0
   23.6060    8.6420   15.2560 C   0  0  0  0  0  0  0  0  0  0  0  0
   23.0810    8.8200   16.5310 C   0  0  0  0  0  0  0  0  0  0  0  0
   22.5340   10.0240   16.7920 O   0  0  0  0  0  0  0  0  0  0  0  0
   23.1660    7.7980   17.4940 C   0  0  0  0  0  0  0  0  0  0  0  0
   22.4870    7.9230   18.8300 C   0  0  0  0  0  0  0  0  0  0  0  0
   21.6900    8.8090   19.0730 O   0  0  0  0  0  0  0  0  0  0  0  0
   22.7280    6.8770   19.8720 C   0  0  0  0  0  0  0  0  0  0  0  0
   22.7860   10.5980   16.0520 H   0  0  0  0  0  0  0  0  0  0  0  0
   21.4410    8.5970   20.6550 H   0  0  0  0  0  0  0  0  0  0  0  0
   21.9240    6.1600   23.0900 H   0  0  0  0  0  0  0  0  0  0  0  0
   23.3380    3.0850   22.2240 H   0  0  0  0  0  0  0  0  0  0  0  0
   24.1300    3.8040   20.3080 H   0  0  0  0  0  0  0  0  0  0  0  0
   24.9660    5.5770   15.6170 H   0  0  0  0  0  0  0  0  0  0  0  0
   25.5500    8.1130   13.3660 H   0  0  0  0  0  0  0  0  0  0  0  0
   23.5400    9.4260   14.5090 H   0  0  0  0  0  0  0  0  0  0  0  0
   24.0070    7.5020   12.7960 H   0  0  0  0  0  0  0  0  0  0  0  0
   25.2780    6.3740   13.3620 H   0  0  0  0  0  0  0  0  0  0  0  0
  1  2  1  0  0  0  0
  1  3  2  0  0  0  0
  1 20  1  0  0  0  0
  2 22  1  0  0  0  0
  3  4  1  0  0  0  0
  3 23  1  0  0  0  0
  4  5  1  0  0  0  0
  4  6  2  0  0  0  0
  5 24  1  0  0  0  0
  6  7  1  0  0  0  0
  6 25  1  0  0  0  0
  7  8  1  0  0  0  0
  7 20  2  0  0  0  0
  8  9  2  0  0  0  0
  8 10  1  0  0  0  0
 10 11  1  0  0  0  0
 10 17  2  0  0  0  0
 11 12  2  0  0  0  0
 11 26  1  0  0  0  0
 12 13  1  0  0  0  0
 12 14  1  0  0  0  0
 13 27  1  0  0  0  0
 13 29  1  0  0  0  0
 13 30  1  0  0  0  0
 14 15  2  0  0  0  0
 14 28  1  0  0  0  0
 15 16  1  0  0  0  0
 15 17  1  0  0  0  0
 16 21  1  0  0  0  0
 17 18  1  0  0  0  0
 18 19  2  0  0  0  0
 18 20  1  0  0  0  0
M  END
>  <Ki_NM>
1900

>  <charge>
0

>  <number_of_rotatable_bonds>
0

>  <lm5_entropy_jk>
16.12636398139741

$$$$
