model08
 OpenBabel11252210453D

 74 75  0  0  1  0  0  0  0  0999 V2000
   11.1660   17.9160    7.5850 C   0  0  1  0  0  0  0  0  0  0  0  0
    8.3580   18.3600    9.0110 N   0  0  0  0  0  0  0  0  0  0  0  0
   12.0360   18.7400    6.8150 O   0  0  0  0  0  0  0  0  0  0  0  0
    9.7580   18.2040    7.0360 C   0  0  0  0  0  0  0  0  0  0  0  0
    4.8160   17.5700    9.7260 N   0  0  0  0  0  0  0  0  0  0  0  0
    5.7090   19.4560    8.8140 O   0  0  0  0  0  0  0  0  0  0  0  0
    8.6780   17.6390    7.8880 C   0  0  0  0  0  0  0  0  0  0  0  0
   11.7590   15.9950    6.0650 N   0  0  0  0  0  0  0  0  0  0  0  0
    8.1360   16.5920    7.6140 O   0  0  0  0  0  0  0  0  0  0  0  0
    7.2630   17.9330    9.9170 C   0  0  1  0  0  0  0  0  0  0  0  0
   10.2440   14.2880    6.0070 O   0  0  0  0  0  0  0  0  0  0  0  0
    7.5790   18.3980   11.3630 C   0  0  0  0  0  0  0  0  0  0  0  0
    5.8700   18.4080    9.4160 C   0  0  0  0  0  0  0  0  0  0  0  0
    3.5250   17.5810    9.0060 C   0  0  0  0  0  0  0  0  0  0  0  0
    3.4570   16.3810    8.0270 C   0  0  0  0  0  0  0  0  0  0  0  0
    4.4500   16.5240    6.8410 C   0  0  0  0  0  0  0  0  0  0  0  0
    3.8940   17.4520    5.7330 C   0  0  0  0  0  0  0  0  0  0  0  0
    5.0110   18.0640    4.8510 C   0  0  0  0  0  0  0  0  0  0  0  0
    5.9830   17.0030    4.2870 C   0  0  0  0  0  0  0  0  0  0  0  0
    6.9030   17.6060    3.2040 C   0  0  0  0  0  0  0  0  0  0  0  0
    7.8660   16.5430    2.6320 C   0  0  0  0  0  0  0  0  0  0  0  0
    9.0940   16.3380    3.5360 C   0  0  0  0  0  0  0  0  0  0  0  0
    9.9020   15.0970    3.1060 C   0  0  0  0  0  0  0  0  0  0  0  0
   11.2190   15.0020    3.9320 C   0  0  0  0  0  0  0  0  0  0  0  0
   11.6020   16.4020    7.4650 C   0  0  1  0  0  0  0  0  0  0  0  0
   11.0220   15.0280    5.4340 C   0  0  0  0  0  0  0  0  0  0  0  0
   12.9400   16.1400    8.2120 C   0  0  0  0  0  0  0  0  0  0  0  0
   13.4890   14.7250    8.0890 C   0  0  0  0  0  0  0  0  0  0  0  0
   12.7390   13.6330    8.5460 C   0  0  0  0  0  0  0  0  0  0  0  0
   13.2530   12.3280    8.4780 C   0  0  0  0  0  0  0  0  0  0  0  0
   14.5310   12.1090    7.9420 C   0  0  0  0  0  0  0  0  0  0  0  0
   15.2950   13.1970    7.4840 C   0  0  0  0  0  0  0  0  0  0  0  0
   14.7730   14.5010    7.5650 C   0  0  0  0  0  0  0  0  0  0  0  0
   15.3660   15.3410    7.2140 H   0  0  0  0  0  0  0  0  0  0  0  0
    8.7630   19.2890    9.0930 H   0  0  0  0  0  0  0  0  0  0  0  0
   11.2110   18.2050    8.6500 H   0  0  0  0  0  0  0  0  0  0  0  0
   12.7730   19.0270    7.4180 H   0  0  0  0  0  0  0  0  0  0  0  0
    9.6390   17.7590    6.0470 H   0  0  0  0  0  0  0  0  0  0  0  0
    5.0640   16.7040   10.2010 H   0  0  0  0  0  0  0  0  0  0  0  0
   12.3890   16.5330    5.4880 H   0  0  0  0  0  0  0  0  0  0  0  0
    7.1890   16.8370    9.8940 H   0  0  0  0  0  0  0  0  0  0  0  0
    8.4890   17.9250   11.7470 H   0  0  0  0  0  0  0  0  0  0  0  0
    6.7600   18.1270   12.0450 H   0  0  0  0  0  0  0  0  0  0  0  0
    7.6860   19.4890   11.4060 H   0  0  0  0  0  0  0  0  0  0  0  0
    3.4060   18.5280    8.4540 H   0  0  0  0  0  0  0  0  0  0  0  0
    2.4330   16.2680    7.6420 H   0  0  0  0  0  0  0  0  0  0  0  0
    4.6670   15.5370    6.4100 H   0  0  0  0  0  0  0  0  0  0  0  0
    3.3180   18.2750    6.1780 H   0  0  0  0  0  0  0  0  0  0  0  0
    5.5780   18.7980    5.4410 H   0  0  0  0  0  0  0  0  0  0  0  0
    5.4170   16.1630    3.8630 H   0  0  0  0  0  0  0  0  0  0  0  0
    7.4650   18.4630    3.6010 H   0  0  0  0  0  0  0  0  0  0  0  0
    8.1950   16.8420    1.6280 H   0  0  0  0  0  0  0  0  0  0  0  0
    8.7650   16.2130    4.5770 H   0  0  0  0  0  0  0  0  0  0  0  0
   10.1260   15.1420    2.0290 H   0  0  0  0  0  0  0  0  0  0  0  0
   11.8950   15.8150    3.6620 H   0  0  0  0  0  0  0  0  0  0  0  0
   10.8100   15.7830    7.9170 H   0  0  0  0  0  0  0  0  0  0  0  0
   12.8050   16.3730    9.2740 H   0  0  0  0  0  0  0  0  0  0  0  0
   11.7530   13.8050    8.9580 H   0  0  0  0  0  0  0  0  0  0  0  0
   12.6600   11.4900    8.8430 H   0  0  0  0  0  0  0  0  0  0  0  0
   14.9290   11.0970    7.8840 H   0  0  0  0  0  0  0  0  0  0  0  0
   16.2900   13.0320    7.0690 H   0  0  0  0  0  0  0  0  0  0  0  0
   13.6840   16.8590    7.8550 H   0  0  0  0  0  0  0  0  0  0  0  0
    9.5750   19.2740    6.9450 H   0  0  0  0  0  0  0  0  0  0  0  0
    2.6970   17.5270    9.7300 H   0  0  0  0  0  0  0  0  0  0  0  0
    3.6680   15.4520    8.5750 H   0  0  0  0  0  0  0  0  0  0  0  0
    5.4260   16.8950    7.1900 H   0  0  0  0  0  0  0  0  0  0  0  0
    3.1840   16.8950    5.1040 H   0  0  0  0  0  0  0  0  0  0  0  0
    4.5530   18.6260    4.0250 H   0  0  0  0  0  0  0  0  0  0  0  0
    6.5900   16.5860    5.1030 H   0  0  0  0  0  0  0  0  0  0  0  0
    6.2820   17.9980    2.3880 H   0  0  0  0  0  0  0  0  0  0  0  0
    7.3300   15.5930    2.5100 H   0  0  0  0  0  0  0  0  0  0  0  0
    9.7290   17.2340    3.5090 H   0  0  0  0  0  0  0  0  0  0  0  0
    9.2990   14.1910    3.2630 H   0  0  0  0  0  0  0  0  0  0  0  0
   11.7520   14.0730    3.7150 H   0  0  0  0  0  0  0  0  0  0  0  0
  1 36  1  1  0  0  0
  1 25  1  0  0  0  0
  2 35  1  0  0  0  0
  2 10  1  0  0  0  0
  3 37  1  0  0  0  0
  3  1  1  0  0  0  0
  4  1  1  0  0  0  0
  4  7  1  0  0  0  0
  5 39  1  0  0  0  0
  6 13  2  0  0  0  0
  7  2  1  0  0  0  0
  8 25  1  0  0  0  0
  9  7  2  0  0  0  0
 10 41  1  1  0  0  0
 10 12  1  0  0  0  0
 12 43  1  0  0  0  0
 12 42  1  0  0  0  0
 13  5  1  0  0  0  0
 13 10  1  0  0  0  0
 14  5  1  0  0  0  0
 14 64  1  0  0  0  0
 15 65  1  0  0  0  0
 15 14  1  0  0  0  0
 16 66  1  0  0  0  0
 16 15  1  0  0  0  0
 17 48  1  0  0  0  0
 17 16  1  0  0  0  0
 18 49  1  0  0  0  0
 18 17  1  0  0  0  0
 19 18  1  0  0  0  0
 19 69  1  0  0  0  0
 20 51  1  0  0  0  0
 20 19  1  0  0  0  0
 21 20  1  0  0  0  0
 21 22  1  0  0  0  0
 22 53  1  0  0  0  0
 23 22  1  0  0  0  0
 23 73  1  0  0  0  0
 23 24  1  0  0  0  0
 24 26  1  0  0  0  0
 25 56  1  1  0  0  0
 25 27  1  0  0  0  0
 26  8  1  0  0  0  0
 26 11  2  0  0  0  0
 27 57  1  0  0  0  0
 28 27  1  0  0  0  0
 28 29  2  0  0  0  0
 29 58  1  0  0  0  0
 30 29  1  0  0  0  0
 30 59  1  0  0  0  0
 31 30  2  0  0  0  0
 32 33  2  0  0  0  0
 32 31  1  0  0  0  0
 33 28  1  0  0  0  0
 34 33  1  0  0  0  0
 38  4  1  0  0  0  0
 40  8  1  0  0  0  0
 44 12  1  0  0  0  0
 45 14  1  0  0  0  0
 46 15  1  0  0  0  0
 47 16  1  0  0  0  0
 50 19  1  0  0  0  0
 52 21  1  0  0  0  0
 54 23  1  0  0  0  0
 55 24  1  0  0  0  0
 60 31  1  0  0  0  0
 61 32  1  0  0  0  0
 62 27  1  0  0  0  0
 63  4  1  0  0  0  0
 67 17  1  0  0  0  0
 68 18  1  0  0  0  0
 70 20  1  0  0  0  0
 71 21  1  0  0  0  0
 72 22  1  0  0  0  0
 74 24  1  0  0  0  0
M  END
>  <IC50_NM>
68.4

>  <number_of_rotatable_bonds>
2

>  <charge>
0

>  <lm5_entropy_jk>
22.370975242635136

$$$$
