16a.pdb
 OpenBabel11252210453D

 88 92  0  0  1  0  0  0  0  0999 V2000
    8.4330   -6.1150   17.6050 C   0  0  0  0  0  0  0  0  0  0  0  0
    8.0430   -5.4180   16.4570 O   0  0  0  0  0  0  0  0  0  0  0  0
    7.4500   -6.7150   18.4160 C   0  0  0  0  0  0  0  0  0  0  0  0
    6.5550   -3.5620   14.5920 O   0  0  0  0  0  0  0  0  0  0  0  0
    7.8580   -7.7140   19.3110 C   0  0  0  0  0  0  0  0  0  0  0  0
    5.4790   -3.3940   16.6040 N   0  0  0  0  0  0  0  0  0  0  0  0
    9.2020   -8.0720   19.4130 C   0  0  0  0  0  0  0  0  0  0  0  0
    6.9620    0.8510   12.5580 C   0  0  0  0  0  0  0  0  0  0  0  0
    4.2260    0.3600   13.7030 N   0  0  0  0  0  0  0  0  0  0  0  0
    5.1440    0.8130   16.4540 O   0  0  0  0  0  0  0  0  0  0  0  0
   10.1750   -7.3770   18.6930 C   0  0  0  0  0  0  0  0  0  0  0  0
    6.3780    1.8850   11.8100 C   0  0  0  0  0  0  0  0  0  0  0  0
    4.0210   -1.3190   12.1820 O   0  0  0  0  0  0  0  0  0  0  0  0
    9.8070   -6.3570   17.8040 C   0  0  0  0  0  0  0  0  0  0  0  0
    6.5650    1.9390   10.4270 C   0  0  0  0  0  0  0  0  0  0  0  0
   10.8380   -5.5430   17.1050 C   0  0  0  0  0  0  0  0  0  0  0  0
    7.3450    0.9730    9.7860 C   0  0  0  0  0  0  0  0  0  0  0  0
    6.0240   -6.3030   18.3410 C   0  0  0  0  0  0  0  0  0  0  0  0
    7.9600   -0.0360   10.5350 C   0  0  0  0  0  0  0  0  0  0  0  0
    7.7730   -0.0990   11.9170 C   0  0  0  0  0  0  0  0  0  0  0  0
    7.8670   -3.9900   16.6030 C   0  0  0  0  0  0  0  0  0  0  0  0
    6.5950   -3.6420   15.8070 C   0  0  0  0  0  0  0  0  0  0  0  0
    4.2040   -2.8490   16.0760 C   0  0  1  0  0  0  0  0  0  0  0  0
    2.1810   -6.7580   15.2240 C   0  0  0  0  0  0  0  0  0  0  0  0
    2.4310   -7.6650   16.2590 C   0  0  0  0  0  0  0  0  0  0  0  0
    2.8380   -7.1930   17.5090 C   0  0  0  0  0  0  0  0  0  0  0  0
    3.0210   -5.8220   17.7150 C   0  0  0  0  0  0  0  0  0  0  0  0
    2.8150   -4.9150   16.6670 C   0  0  0  0  0  0  0  0  0  0  0  0
    2.3790   -5.3900   15.4200 C   0  0  0  0  0  0  0  0  0  0  0  0
    3.0290   -3.4470   16.8950 C   0  0  0  0  0  0  0  0  0  0  0  0
    4.1490   -1.3160   16.2560 C   0  0  0  0  0  0  0  0  0  0  0  0
    5.3370   -0.4720   15.8010 C   0  0  1  0  0  0  0  0  0  0  0  0
    5.4710   -0.2110   14.2770 C   0  0  2  0  0  0  0  0  0  0  0  0
    3.6410   -0.2350   12.6030 C   0  0  0  0  0  0  0  0  0  0  0  0
    2.4280    0.4540   11.9480 C   0  0  1  0  0  0  0  0  0  0  0  0
    1.9940    1.6130   12.7250 O   0  0  0  0  0  0  0  0  0  0  0  0
    6.6750    0.7340   14.0270 C   0  0  0  0  0  0  0  0  0  0  0  0
    1.6980    2.6930   11.8720 C   0  0  0  0  0  0  0  0  0  0  0  0
    1.1940    3.6940   12.3030 O   0  0  0  0  0  0  0  0  0  0  0  0
    2.1800    2.3880   10.5860 N   0  0  0  0  0  0  0  0  0  0  0  0
    2.7310    1.0010   10.5320 C   0  0  0  0  0  0  0  0  0  0  0  0
    1.7980    3.0950    9.3920 C   0  0  0  0  0  0  0  0  0  0  0  0
    2.7440    3.2560    8.3660 C   0  0  0  0  0  0  0  0  0  0  0  0
    2.3980    3.9860    7.2270 C   0  0  0  0  0  0  0  0  0  0  0  0
    1.1320    4.5680    7.1160 C   0  0  0  0  0  0  0  0  0  0  0  0
    0.2000    4.4130    8.1480 C   0  0  0  0  0  0  0  0  0  0  0  0
    0.5160    3.6620    9.2820 C   0  0  0  0  0  0  0  0  0  0  0  0
   10.8140   -4.4900   17.4800 H   0  0  0  0  0  0  0  0  0  0  0  0
   10.6650   -5.5370   16.0040 H   0  0  0  0  0  0  0  0  0  0  0  0
    5.6630   -6.2850   17.2850 H   0  0  0  0  0  0  0  0  0  0  0  0
    5.5460   -3.3850   17.6380 H   0  0  0  0  0  0  0  0  0  0  0  0
    3.9460    1.2810   14.0400 H   0  0  0  0  0  0  0  0  0  0  0  0
    5.9950    0.9590   17.0070 H   0  0  0  0  0  0  0  0  0  0  0  0
    7.1150   -8.2330   19.9230 H   0  0  0  0  0  0  0  0  0  0  0  0
    5.7790    2.6530   12.3060 H   0  0  0  0  0  0  0  0  0  0  0  0
    9.4960   -8.8960   20.0720 H   0  0  0  0  0  0  0  0  0  0  0  0
    6.0980    2.7340    9.8390 H   0  0  0  0  0  0  0  0  0  0  0  0
    7.4600    1.0090    8.7010 H   0  0  0  0  0  0  0  0  0  0  0  0
   11.2240   -7.6520   18.8090 H   0  0  0  0  0  0  0  0  0  0  0  0
    8.5790   -0.7780   10.0340 H   0  0  0  0  0  0  0  0  0  0  0  0
    8.2630   -0.8830   12.4980 H   0  0  0  0  0  0  0  0  0  0  0  0
    8.7560   -3.5040   16.1350 H   0  0  0  0  0  0  0  0  0  0  0  0
    4.1060   -3.1210   14.9950 H   0  0  0  0  0  0  0  0  0  0  0  0
    7.7640   -3.7020   17.6620 H   0  0  0  0  0  0  0  0  0  0  0  0
   11.8640   -5.9340   17.3120 H   0  0  0  0  0  0  0  0  0  0  0  0
    5.8970   -5.2790   18.7670 H   0  0  0  0  0  0  0  0  0  0  0  0
    5.3690   -6.9950   18.9240 H   0  0  0  0  0  0  0  0  0  0  0  0
    1.8360   -7.1190   14.2580 H   0  0  0  0  0  0  0  0  0  0  0  0
    2.3100   -8.7380   16.1020 H   0  0  0  0  0  0  0  0  0  0  0  0
    3.0100   -7.8900   18.3320 H   0  0  0  0  0  0  0  0  0  0  0  0
    3.3160   -5.4570   18.7010 H   0  0  0  0  0  0  0  0  0  0  0  0
    2.1770   -4.6830   14.6180 H   0  0  0  0  0  0  0  0  0  0  0  0
    2.0950   -2.8900   16.6380 H   0  0  0  0  0  0  0  0  0  0  0  0
    3.2180   -3.2610   17.9860 H   0  0  0  0  0  0  0  0  0  0  0  0
    4.0800   -1.1300   17.3610 H   0  0  0  0  0  0  0  0  0  0  0  0
    3.2130   -0.9480   15.7740 H   0  0  0  0  0  0  0  0  0  0  0  0
    6.2970   -0.9040   16.1810 H   0  0  0  0  0  0  0  0  0  0  0  0
    5.6780   -1.2050   13.7830 H   0  0  0  0  0  0  0  0  0  0  0  0
    1.5540   -0.2460   11.9640 H   0  0  0  0  0  0  0  0  0  0  0  0
    6.4620    1.7400   14.4720 H   0  0  0  0  0  0  0  0  0  0  0  0
    7.5650    0.3360   14.5800 H   0  0  0  0  0  0  0  0  0  0  0  0
    2.2370    0.3950    9.7320 H   0  0  0  0  0  0  0  0  0  0  0  0
    3.8350    1.0580   10.3230 H   0  0  0  0  0  0  0  0  0  0  0  0
    3.7510    2.8430    8.4560 H   0  0  0  0  0  0  0  0  0  0  0  0
    3.1320    4.1170    6.4240 H   0  0  0  0  0  0  0  0  0  0  0  0
    0.8740    5.1470    6.2260 H   0  0  0  0  0  0  0  0  0  0  0  0
   -0.7890    4.8760    8.0620 H   0  0  0  0  0  0  0  0  0  0  0  0
   -0.2370    3.5220   10.0580 H   0  0  0  0  0  0  0  0  0  0  0  0
  1  2  1  0  0  0  0
  1  3  2  0  0  0  0
  1 14  1  0  0  0  0
  2 21  1  0  0  0  0
  3  5  1  0  0  0  0
  3 18  1  0  0  0  0
  4 22  2  0  0  0  0
  5  7  2  0  0  0  0
  5 54  1  0  0  0  0
  6 22  1  0  0  0  0
  6 23  1  0  0  0  0
  6 51  1  0  0  0  0
  7 11  1  0  0  0  0
  7 56  1  0  0  0  0
  8 12  2  0  0  0  0
  8 20  1  0  0  0  0
  8 37  1  0  0  0  0
  9 33  1  0  0  0  0
  9 34  1  0  0  0  0
  9 52  1  0  0  0  0
 10 32  1  0  0  0  0
 10 53  1  0  0  0  0
 11 14  2  0  0  0  0
 11 59  1  0  0  0  0
 12 15  1  0  0  0  0
 12 55  1  0  0  0  0
 13 34  2  0  0  0  0
 14 16  1  0  0  0  0
 15 17  2  0  0  0  0
 15 57  1  0  0  0  0
 16 48  1  0  0  0  0
 16 49  1  0  0  0  0
 16 65  1  0  0  0  0
 17 19  1  0  0  0  0
 17 58  1  0  0  0  0
 18 50  1  0  0  0  0
 18 66  1  0  0  0  0
 18 67  1  0  0  0  0
 19 20  2  0  0  0  0
 19 60  1  0  0  0  0
 20 61  1  0  0  0  0
 21 22  1  0  0  0  0
 21 62  1  0  0  0  0
 21 64  1  0  0  0  0
 23 30  1  0  0  0  0
 23 31  1  0  0  0  0
 23 63  1  6  0  0  0
 24 25  2  0  0  0  0
 24 29  1  0  0  0  0
 24 68  1  0  0  0  0
 25 26  1  0  0  0  0
 25 69  1  0  0  0  0
 26 27  2  0  0  0  0
 26 70  1  0  0  0  0
 27 28  1  0  0  0  0
 27 71  1  0  0  0  0
 28 29  2  0  0  0  0
 28 30  1  0  0  0  0
 29 72  1  0  0  0  0
 30 73  1  0  0  0  0
 30 74  1  0  0  0  0
 31 32  1  0  0  0  0
 31 75  1  0  0  0  0
 31 76  1  0  0  0  0
 32 33  1  0  0  0  0
 32 77  1  1  0  0  0
 33 37  1  0  0  0  0
 33 78  1  6  0  0  0
 34 35  1  0  0  0  0
 35 36  1  0  0  0  0
 35 41  1  0  0  0  0
 35 79  1  1  0  0  0
 36 38  1  0  0  0  0
 37 80  1  0  0  0  0
 37 81  1  0  0  0  0
 38 39  2  0  0  0  0
 38 40  1  0  0  0  0
 40 41  1  0  0  0  0
 40 42  1  0  0  0  0
 41 82  1  0  0  0  0
 41 83  1  0  0  0  0
 42 43  2  0  0  0  0
 42 47  1  0  0  0  0
 43 44  1  0  0  0  0
 43 84  1  0  0  0  0
 44 45  2  0  0  0  0
 44 85  1  0  0  0  0
 45 46  1  0  0  0  0
 45 86  1  0  0  0  0
 46 47  2  0  0  0  0
 46 87  1  0  0  0  0
 47 88  1  0  0  0  0
M  END
>  <charge>
0

>  <KI_NM>
8.05

>  <number_of_rotatable_bonds>
16

>  <lm5_entropy_jk>
39.45594585765423

>  <ligand_crystal_conformation>
A

$$$$
