5QCZ
 OpenBabel11252210453D

 77 80  0  0  1  0  0  0  0  0999 V2000
   32.2160    4.4110    9.1430 C   0  0  0  0  0  0  0  0  0  0  0  0
   31.1770    3.9670   10.0530 O   0  0  0  0  0  0  0  0  0  0  0  0
   31.4030    2.6070   10.4910 C   0  0  0  0  0  0  0  0  0  0  0  0
   30.3370    2.3050   11.5700 C   0  0  1  0  0  0  0  0  0  0  0  0
   30.9560    1.5430   12.7830 C   0  0  0  0  0  0  0  0  0  0  0  0
   31.8050    2.4610   13.6480 N   0  3  0  0  0  0  0  0  0  0  0  0
   31.0650    3.7600   14.0120 C   0  0  2  0  0  0  0  0  0  0  0  0
   30.4630    4.3890   12.7380 C   0  0  0  0  0  0  0  0  0  0  0  0
   29.6340    3.4550   12.0390 O   0  0  0  0  0  0  0  0  0  0  0  0
   32.0990    4.6970   14.6810 C   0  0  1  0  0  0  0  0  0  0  0  0
   33.1780    4.7860   13.7320 O   0  0  0  0  0  0  0  0  0  0  0  0
   31.5070    6.1220   14.9360 C   0  0  2  0  0  0  0  0  0  0  0  0
   32.5980    7.0280   15.5460 C   0  0  0  0  0  0  0  0  0  0  0  0
   32.0180    8.3290   16.0370 C   0  0  0  0  0  0  0  0  0  0  0  0
   31.6090    9.3300   15.1560 C   0  0  0  0  0  0  0  0  0  0  0  0
   31.0280   10.5090   15.6570 C   0  0  0  0  0  0  0  0  0  0  0  0
   30.9050   10.7210   17.0220 C   0  0  0  0  0  0  0  0  0  0  0  0
   31.3580    9.7090   17.9040 C   0  0  0  0  0  0  0  0  0  0  0  0
   31.8730    8.5050   17.4230 C   0  0  0  0  0  0  0  0  0  0  0  0
   31.2120   10.0500   19.2200 O   0  0  0  0  0  0  0  0  0  0  0  0
   31.7740    9.1860   20.2580 C   0  0  0  0  0  0  0  0  0  0  0  0
   30.7250    9.1380   21.3670 C   0  0  0  0  0  0  0  0  0  0  0  0
   29.3660    8.6140   20.8990 C   0  0  0  0  0  0  0  0  0  0  0  0
   29.3510    7.0790   20.7830 C   0  0  0  0  0  0  0  0  0  0  0  0
   28.0100    6.5740   20.3790 N   0  0  0  0  0  0  0  0  0  0  0  0
   27.6050    6.6510   19.0220 C   0  0  0  0  0  0  0  0  0  0  0  0
   26.2140    6.6270   18.7440 C   0  0  0  0  0  0  0  0  0  0  0  0
   25.7660    6.4610   17.4390 C   0  0  0  0  0  0  0  0  0  0  0  0
   24.2810    6.4650   17.1430 C   0  0  0  0  0  0  0  0  0  0  0  0
   23.7970    5.1260   16.9300 O   0  0  0  0  0  0  0  0  0  0  0  0
   23.6410    4.3600   18.1470 C   0  0  0  0  0  0  0  0  0  0  0  0
   26.6940    6.2930   16.3910 C   0  0  0  0  0  0  0  0  0  0  0  0
   28.0620    6.3910   16.6500 C   0  0  0  0  0  0  0  0  0  0  0  0
   28.5190    6.6110   17.9570 C   0  0  0  0  0  0  0  0  0  0  0  0
   29.0250    6.2860   15.5030 C   0  0  0  0  0  0  0  0  0  0  0  0
   28.6980    6.4250   14.3280 O   0  0  0  0  0  0  0  0  0  0  0  0
   30.3520    5.9360   15.8310 N   0  0  0  0  0  0  0  0  0  0  0  0
   32.4420    2.5140   10.8820 H   0  0  0  0  0  0  0  0  0  0  0  0
   31.2570    1.9170    9.6220 H   0  0  0  0  0  0  0  0  0  0  0  0
   29.5090    1.6740   11.1440 H   0  0  0  0  0  0  0  0  0  0  0  0
   30.1140    1.1210   13.4090 H   0  0  0  0  0  0  0  0  0  0  0  0
   31.5840    0.6830   12.4110 H   0  0  0  0  0  0  0  0  0  0  0  0
   32.0460    1.9710   14.5580 H   0  0  0  0  0  0  0  0  0  0  0  0
   32.7130    2.7160   13.1330 H   0  0  0  0  0  0  0  0  0  0  0  0
   30.2630    3.4930   14.7600 H   0  0  0  0  0  0  0  0  0  0  0  0
   29.7170    5.1800   13.0240 H   0  0  0  0  0  0  0  0  0  0  0  0
   31.2690    4.7510   12.0590 H   0  0  0  0  0  0  0  0  0  0  0  0
   32.4930    4.2560   15.6280 H   0  0  0  0  0  0  0  0  0  0  0  0
   31.1960    6.5750   13.9640 H   0  0  0  0  0  0  0  0  0  0  0  0
   33.3780    7.2210   14.7650 H   0  0  0  0  0  0  0  0  0  0  0  0
   33.1070    6.4870   16.3840 H   0  0  0  0  0  0  0  0  0  0  0  0
   31.7630    9.2100   14.0890 H   0  0  0  0  0  0  0  0  0  0  0  0
   30.6720   11.2690   14.9580 H   0  0  0  0  0  0  0  0  0  0  0  0
   30.4980   11.6520   17.4240 H   0  0  0  0  0  0  0  0  0  0  0  0
   32.1680    7.6910   18.0750 H   0  0  0  0  0  0  0  0  0  0  0  0
   32.0000    8.1720   19.8790 H   0  0  0  0  0  0  0  0  0  0  0  0
   32.6930    9.7240   20.5840 H   0  0  0  0  0  0  0  0  0  0  0  0
   31.1150    8.4770   22.1770 H   0  0  0  0  0  0  0  0  0  0  0  0
   30.5830   10.1750   21.7550 H   0  0  0  0  0  0  0  0  0  0  0  0
   29.1200    9.0680   19.9080 H   0  0  0  0  0  0  0  0  0  0  0  0
   28.5860    8.9340   21.6350 H   0  0  0  0  0  0  0  0  0  0  0  0
   29.5800    6.6240   21.7870 H   0  0  0  0  0  0  0  0  0  0  0  0
   30.1350    6.7380   20.0620 H   0  0  0  0  0  0  0  0  0  0  0  0
   27.2900    6.9290   21.0330 H   0  0  0  0  0  0  0  0  0  0  0  0
   25.4990    6.7430   19.5650 H   0  0  0  0  0  0  0  0  0  0  0  0
   23.7060    6.9640   17.9620 H   0  0  0  0  0  0  0  0  0  0  0  0
   24.0560    6.9550   16.1630 H   0  0  0  0  0  0  0  0  0  0  0  0
   26.3250    6.0740   15.3950 H   0  0  0  0  0  0  0  0  0  0  0  0
   29.5810    6.7530   18.1540 H   0  0  0  0  0  0  0  0  0  0  0  0
   30.6340    5.7460   16.8130 H   0  0  0  0  0  0  0  0  0  0  0  0
   34.0580    4.9330   14.2730 H   0  0  0  0  0  0  0  0  0  0  0  0
   23.1920    3.4150   17.7720 H   0  0  0  0  0  0  0  0  0  0  0  0
   22.9490    4.8840   18.8450 H   0  0  0  0  0  0  0  0  0  0  0  0
   24.6320    4.1910   18.6150 H   0  0  0  0  0  0  0  0  0  0  0  0
   31.8430    5.4100    8.8310 H   0  0  0  0  0  0  0  0  0  0  0  0
   32.2860    3.7230    8.2730 H   0  0  0  0  0  0  0  0  0  0  0  0
   33.1830    4.4810    9.6860 H   0  0  0  0  0  0  0  0  0  0  0  0
  1  2  1  0  0  0  0
  2  3  1  0  0  0  0
  3  4  1  0  0  0  0
  4  5  1  0  0  0  0
  4  9  1  0  0  0  0
  4 40  1  6  0  0  0
  5  6  1  0  0  0  0
  6  7  1  0  0  0  0
  7  8  1  0  0  0  0
  7 10  1  0  0  0  0
  7 45  1  1  0  0  0
  8  9  1  0  0  0  0
 10 11  1  0  0  0  0
 10 12  1  0  0  0  0
 10 48  1  1  0  0  0
 12 13  1  0  0  0  0
 12 37  1  0  0  0  0
 12 49  1  6  0  0  0
 13 14  1  0  0  0  0
 14 15  2  0  0  0  0
 14 19  1  0  0  0  0
 15 16  1  0  0  0  0
 16 17  2  0  0  0  0
 17 18  1  0  0  0  0
 18 19  2  0  0  0  0
 18 20  1  0  0  0  0
 20 21  1  0  0  0  0
 21 22  1  0  0  0  0
 22 23  1  0  0  0  0
 23 24  1  0  0  0  0
 24 25  1  0  0  0  0
 25 26  1  0  0  0  0
 26 27  2  0  0  0  0
 26 34  1  0  0  0  0
 27 28  1  0  0  0  0
 28 29  1  0  0  0  0
 28 32  2  0  0  0  0
 29 30  1  0  0  0  0
 30 31  1  0  0  0  0
 32 33  1  0  0  0  0
 33 34  2  0  0  0  0
 33 35  1  0  0  0  0
 35 36  2  0  0  0  0
 35 37  1  0  0  0  0
 38  3  1  0  0  0  0
 39  3  1  0  0  0  0
 41  5  1  0  0  0  0
 42  5  1  0  0  0  0
 43  6  1  0  0  0  0
 44  6  1  0  0  0  0
 46  8  1  0  0  0  0
 47  8  1  0  0  0  0
 50 13  1  0  0  0  0
 51 13  1  0  0  0  0
 52 15  1  0  0  0  0
 53 16  1  0  0  0  0
 54 17  1  0  0  0  0
 55 19  1  0  0  0  0
 56 21  1  0  0  0  0
 57 21  1  0  0  0  0
 58 22  1  0  0  0  0
 59 22  1  0  0  0  0
 60 23  1  0  0  0  0
 61 23  1  0  0  0  0
 62 24  1  0  0  0  0
 63 24  1  0  0  0  0
 64 25  1  0  0  0  0
 65 27  1  0  0  0  0
 66 29  1  0  0  0  0
 67 29  1  0  0  0  0
 68 32  1  0  0  0  0
 69 34  1  0  0  0  0
 70 37  1  0  0  0  0
 71 11  1  0  0  0  0
 72 31  1  0  0  0  0
 73 31  1  0  0  0  0
 74 31  1  0  0  0  0
 75  1  1  0  0  0  0
 76  1  1  0  0  0  0
 77  1  1  0  0  0  0
M  CHG  1   6   1
M  END
>  <IC50_NM>
8300

>  <number_of_rotatable_bonds>
6

>  <lm5_entropy_jk>
35.26261921194479

>  <charge>
1

>  <old_name>
BACE_13

>  <single_crystal_model>
yes

>  <xray_resolution>
2.3

$$$$
