2Q54
 OpenBabel11252210453D

 92 95  0  0  1  0  0  0  0  0999 V2000
    7.1860   -5.8210   16.8080 N   0  0  0  0  0  0  0  0  0  0  0  0
    7.8110   -5.8280   18.9920 O   0  0  0  0  0  0  0  0  0  0  0  0
    6.9590   -7.8110   18.0710 C   0  0  0  0  0  0  0  0  0  0  0  0
    6.8450   -3.3030   14.4630 O   0  0  0  0  0  0  0  0  0  0  0  0
    7.3480   -6.3960   18.0280 C   0  0  0  0  0  0  0  0  0  0  0  0
    5.5900   -3.3840   16.3380 N   0  0  0  0  0  0  0  0  0  0  0  0
    7.1170    0.9870   12.4510 C   0  0  0  0  0  0  0  0  0  0  0  0
    4.4030    0.5220   13.5450 N   0  0  0  0  0  0  0  0  0  0  0  0
    5.0010    0.8380   16.2760 O   0  0  0  0  0  0  0  0  0  0  0  0
    6.8310    2.2510   11.9130 C   0  0  0  0  0  0  0  0  0  0  0  0
    3.5540   -1.2160   12.3550 O   0  0  0  0  0  0  0  0  0  0  0  0
    7.1290    2.5350   10.5690 C   0  0  0  0  0  0  0  0  0  0  0  0
    7.7190    1.5490    9.7620 C   0  0  0  0  0  0  0  0  0  0  0  0
    8.0110    0.2840   10.3000 C   0  0  0  0  0  0  0  0  0  0  0  0
    7.7040    0.0050   11.6420 C   0  0  0  0  0  0  0  0  0  0  0  0
    7.7740   -4.5020   16.4010 C   0  0  2  0  0  0  0  0  0  0  0  0
    6.7290   -3.6550   15.6280 C   0  0  0  0  0  0  0  0  0  0  0  0
    4.3770   -2.8760   15.7420 C   0  0  1  0  0  0  0  0  0  0  0  0
    9.1280   -4.6990   15.6590 C   0  0  0  0  0  0  0  0  0  0  0  0
    9.8680   -3.3740   15.4520 C   0  0  0  0  0  0  0  0  0  0  0  0
   10.0790   -5.5750   16.4870 C   0  0  0  0  0  0  0  0  0  0  0  0
    3.2400   -7.2780   15.2620 C   0  0  0  0  0  0  0  0  0  0  0  0
    3.3500   -7.9340   16.4980 C   0  0  0  0  0  0  0  0  0  0  0  0
    3.4230   -7.1870   17.6850 C   0  0  0  0  0  0  0  0  0  0  0  0
    3.4000   -5.7840   17.6270 C   0  0  0  0  0  0  0  0  0  0  0  0
    3.2770   -5.1240   16.3940 C   0  0  0  0  0  0  0  0  0  0  0  0
    3.1800   -5.8740   15.2140 C   0  0  0  0  0  0  0  0  0  0  0  0
    3.1760   -3.6120   16.3550 C   0  0  0  0  0  0  0  0  0  0  0  0
    4.2090   -1.3810   16.0520 C   0  0  0  0  0  0  0  0  0  0  0  0
    5.3540   -0.4060   15.6870 C   0  0  1  0  0  0  0  0  0  0  0  0
    5.5640   -0.1580   14.1570 C   0  0  2  0  0  0  0  0  0  0  0  0
    3.4520   -0.0660   12.7440 C   0  0  0  0  0  0  0  0  0  0  0  0
    2.2170    0.8280   12.4470 C   0  0  1  0  0  0  0  0  0  0  0  0
    2.4920    2.1940   12.8470 O   0  0  0  0  0  0  0  0  0  0  0  0
    6.8380    0.6970   13.9110 C   0  0  0  0  0  0  0  0  0  0  0  0
    2.7620    3.0190   11.7990 C   0  0  0  0  0  0  0  0  0  0  0  0
    3.0910    4.1860   11.8840 O   0  0  0  0  0  0  0  0  0  0  0  0
    2.2820    2.4060   10.6800 N   0  0  0  0  0  0  0  0  0  0  0  0
    1.8640    1.0140   10.9480 C   0  0  0  0  0  0  0  0  0  0  0  0
    2.2230    3.0460    9.4210 C   0  0  0  0  0  0  0  0  0  0  0  0
    3.4040    3.4050    8.7550 C   0  0  0  0  0  0  0  0  0  0  0  0
    3.3610    4.0790    7.5180 C   0  0  0  0  0  0  0  0  0  0  0  0
    2.1140    4.4530    6.9810 C   0  0  0  0  0  0  0  0  0  0  0  0
    0.9300    4.1300    7.6660 C   0  0  0  0  0  0  0  0  0  0  0  0
    0.9880    3.4210    8.8810 C   0  0  0  0  0  0  0  0  0  0  0  0
    4.6290    4.4090    6.7910 C   0  0  0  0  0  0  0  0  0  0  0  0
    5.2210    3.5910    6.1130 O   0  0  0  0  0  0  0  0  0  0  0  0
    5.1620    5.7940    6.9210 C   0  0  0  0  0  0  0  0  0  0  0  0
    6.8320   -6.4480   16.0910 H   0  0  0  0  0  0  0  0  0  0  0  0
    6.0320   -7.9490   17.5120 H   0  0  0  0  0  0  0  0  0  0  0  0
    7.7480   -8.4090   17.6130 H   0  0  0  0  0  0  0  0  0  0  0  0
    6.8130   -8.1110   19.1110 H   0  0  0  0  0  0  0  0  0  0  0  0
    5.5590   -3.7200   17.2920 H   0  0  0  0  0  0  0  0  0  0  0  0
    4.2120    1.4900   13.7850 H   0  0  0  0  0  0  0  0  0  0  0  0
    5.0880    1.4810   15.5450 H   0  0  0  0  0  0  0  0  0  0  0  0
    6.3790    3.0160   12.5410 H   0  0  0  0  0  0  0  0  0  0  0  0
    6.9090    3.5200   10.1550 H   0  0  0  0  0  0  0  0  0  0  0  0
    7.9510    1.7690    8.7200 H   0  0  0  0  0  0  0  0  0  0  0  0
    8.4700   -0.4810    9.6800 H   0  0  0  0  0  0  0  0  0  0  0  0
    7.9290   -0.9700   12.0630 H   0  0  0  0  0  0  0  0  0  0  0  0
    7.9750   -3.9160   17.3070 H   0  0  0  0  0  0  0  0  0  0  0  0
    4.3970   -3.0470   14.6520 H   0  0  0  0  0  0  0  0  0  0  0  0
    8.9250   -5.1720   14.6820 H   0  0  0  0  0  0  0  0  0  0  0  0
   10.7810   -3.5140   14.8640 H   0  0  0  0  0  0  0  0  0  0  0  0
    9.2430   -2.6630   14.8990 H   0  0  0  0  0  0  0  0  0  0  0  0
   10.1430   -2.9100   16.4080 H   0  0  0  0  0  0  0  0  0  0  0  0
   11.1020   -5.5230   16.1160 H   0  0  0  0  0  0  0  0  0  0  0  0
   10.0920   -5.2580   17.5370 H   0  0  0  0  0  0  0  0  0  0  0  0
    9.7680   -6.6270   16.4610 H   0  0  0  0  0  0  0  0  0  0  0  0
    3.2040   -7.8590   14.3440 H   0  0  0  0  0  0  0  0  0  0  0  0
    3.3850   -9.0230   16.5370 H   0  0  0  0  0  0  0  0  0  0  0  0
    3.5090   -7.6930   18.6470 H   0  0  0  0  0  0  0  0  0  0  0  0
    3.4670   -5.2060   18.5460 H   0  0  0  0  0  0  0  0  0  0  0  0
    3.0590   -5.3610   14.2650 H   0  0  0  0  0  0  0  0  0  0  0  0
    2.2880   -3.3420   15.7820 H   0  0  0  0  0  0  0  0  0  0  0  0
    2.9950   -3.2440   17.3710 H   0  0  0  0  0  0  0  0  0  0  0  0
    4.0920   -1.2960   17.1360 H   0  0  0  0  0  0  0  0  0  0  0  0
    3.2740   -1.0170   15.6160 H   0  0  0  0  0  0  0  0  0  0  0  0
    6.3010   -0.7770   16.1210 H   0  0  0  0  0  0  0  0  0  0  0  0
    5.7130   -1.1370   13.6830 H   0  0  0  0  0  0  0  0  0  0  0  0
    1.3860    0.3920   13.0210 H   0  0  0  0  0  0  0  0  0  0  0  0
    6.7830    1.6380   14.4670 H   0  0  0  0  0  0  0  0  0  0  0  0
    7.7010    0.1790   14.3470 H   0  0  0  0  0  0  0  0  0  0  0  0
    0.7850    0.8870   10.7640 H   0  0  0  0  0  0  0  0  0  0  0  0
    2.4180    0.2940   10.3280 H   0  0  0  0  0  0  0  0  0  0  0  0
    4.3590    3.1190    9.1880 H   0  0  0  0  0  0  0  0  0  0  0  0
    2.0670    5.0060    6.0410 H   0  0  0  0  0  0  0  0  0  0  0  0
   -0.0330    4.4460    7.2670 H   0  0  0  0  0  0  0  0  0  0  0  0
    0.0730    3.1930    9.4210 H   0  0  0  0  0  0  0  0  0  0  0  0
    6.1870    5.7490    7.2990 H   0  0  0  0  0  0  0  0  0  0  0  0
    5.1410    6.2770    5.9380 H   0  0  0  0  0  0  0  0  0  0  0  0
    4.5360    6.3560    7.6210 H   0  0  0  0  0  0  0  0  0  0  0  0
  1  5  1  0  0  0  0
  1 16  1  0  0  0  0
  1 49  1  0  0  0  0
  2  5  2  0  0  0  0
  3  5  1  0  0  0  0
  3 50  1  0  0  0  0
  3 51  1  0  0  0  0
  3 52  1  0  0  0  0
  4 17  2  0  0  0  0
  6 17  1  0  0  0  0
  6 18  1  0  0  0  0
  6 53  1  0  0  0  0
  7 10  2  0  0  0  0
  7 15  1  0  0  0  0
  7 35  1  0  0  0  0
  8 31  1  0  0  0  0
  8 32  1  0  0  0  0
  8 54  1  0  0  0  0
  9 30  1  0  0  0  0
  9 55  1  0  0  0  0
 10 12  1  0  0  0  0
 10 56  1  0  0  0  0
 11 32  2  0  0  0  0
 12 13  2  0  0  0  0
 12 57  1  0  0  0  0
 13 14  1  0  0  0  0
 13 58  1  0  0  0  0
 14 15  2  0  0  0  0
 14 59  1  0  0  0  0
 15 60  1  0  0  0  0
 16 17  1  0  0  0  0
 16 19  1  0  0  0  0
 16 61  1  1  0  0  0
 18 28  1  0  0  0  0
 18 29  1  0  0  0  0
 18 62  1  6  0  0  0
 19 20  1  0  0  0  0
 19 21  1  0  0  0  0
 19 63  1  0  0  0  0
 20 64  1  0  0  0  0
 20 65  1  0  0  0  0
 20 66  1  0  0  0  0
 21 67  1  0  0  0  0
 21 68  1  0  0  0  0
 21 69  1  0  0  0  0
 22 23  2  0  0  0  0
 22 27  1  0  0  0  0
 22 70  1  0  0  0  0
 23 24  1  0  0  0  0
 23 71  1  0  0  0  0
 24 25  2  0  0  0  0
 24 72  1  0  0  0  0
 25 26  1  0  0  0  0
 25 73  1  0  0  0  0
 26 27  2  0  0  0  0
 26 28  1  0  0  0  0
 27 74  1  0  0  0  0
 28 75  1  0  0  0  0
 28 76  1  0  0  0  0
 29 30  1  0  0  0  0
 29 77  1  0  0  0  0
 29 78  1  0  0  0  0
 30 31  1  0  0  0  0
 30 79  1  1  0  0  0
 31 35  1  0  0  0  0
 31 80  1  6  0  0  0
 32 33  1  0  0  0  0
 33 34  1  0  0  0  0
 33 39  1  0  0  0  0
 33 81  1  6  0  0  0
 34 36  1  0  0  0  0
 35 82  1  0  0  0  0
 35 83  1  0  0  0  0
 36 37  2  0  0  0  0
 36 38  1  0  0  0  0
 38 39  1  0  0  0  0
 38 40  1  0  0  0  0
 39 84  1  0  0  0  0
 39 85  1  0  0  0  0
 40 41  2  0  0  0  0
 40 45  1  0  0  0  0
 41 42  1  0  0  0  0
 41 86  1  0  0  0  0
 42 43  2  0  0  0  0
 42 46  1  0  0  0  0
 43 44  1  0  0  0  0
 43 87  1  0  0  0  0
 44 45  2  0  0  0  0
 44 88  1  0  0  0  0
 45 89  1  0  0  0  0
 46 47  2  0  0  0  0
 46 48  1  0  0  0  0
 48 90  1  0  0  0  0
 48 91  1  0  0  0  0
 48 92  1  0  0  0  0
M  END
>  <charge>
0

>  <KI_NM>
0.98

>  <number_of_rotatable_bonds>
18

>  <lm5_entropy_jk>
45.88404741205561

>  <ligand_crystal_conformation>
A

$$$$
