2Q54
 OpenBabel11252210453D

 92 95  0  0  1  0  0  0  0  0999 V2000
    7.3100   -5.8940   16.9030 N   0  0  0  0  0  0  0  0  0  0  0  0
    8.1250   -5.7800   19.0190 O   0  0  0  0  0  0  0  0  0  0  0  0
    7.3100   -7.8410   18.2510 C   0  0  0  0  0  0  0  0  0  0  0  0
    6.6650   -3.4190   14.5740 O   0  0  0  0  0  0  0  0  0  0  0  0
    7.6170   -6.4120   18.1200 C   0  0  0  0  0  0  0  0  0  0  0  0
    5.6240   -3.4840   16.5780 N   0  0  0  0  0  0  0  0  0  0  0  0
    7.0860    0.8380   12.7010 C   0  0  0  0  0  0  0  0  0  0  0  0
    4.4290    0.2930   13.6420 N   0  0  0  0  0  0  0  0  0  0  0  0
    4.7820    0.7290   16.3460 O   0  0  0  0  0  0  0  0  0  0  0  0
    6.9470    2.1630   12.2590 C   0  0  0  0  0  0  0  0  0  0  0  0
    3.3670   -1.6080   13.0080 O   0  0  0  0  0  0  0  0  0  0  0  0
    7.1890    2.4930   10.9150 C   0  0  0  0  0  0  0  0  0  0  0  0
    7.5710    1.4890   10.0110 C   0  0  0  0  0  0  0  0  0  0  0  0
    7.7250    0.1650   10.4520 C   0  0  0  0  0  0  0  0  0  0  0  0
    7.4760   -0.1590   11.7970 C   0  0  0  0  0  0  0  0  0  0  0  0
    7.8260   -4.5830   16.3890 C   0  0  2  0  0  0  0  0  0  0  0  0
    6.6830   -3.7500   15.7500 C   0  0  0  0  0  0  0  0  0  0  0  0
    4.3310   -3.0310   16.1040 C   0  0  1  0  0  0  0  0  0  0  0  0
    9.0380   -4.7640   15.4260 C   0  0  0  0  0  0  0  0  0  0  0  0
    9.8980   -3.4970   15.3960 C   0  0  0  0  0  0  0  0  0  0  0  0
    9.9750   -5.9160   15.8120 C   0  0  0  0  0  0  0  0  0  0  0  0
    2.3260   -7.1760   15.6550 C   0  0  0  0  0  0  0  0  0  0  0  0
    2.8650   -8.0040   16.6530 C   0  0  0  0  0  0  0  0  0  0  0  0
    3.5560   -7.4380   17.7370 C   0  0  0  0  0  0  0  0  0  0  0  0
    3.7100   -6.0430   17.8120 C   0  0  0  0  0  0  0  0  0  0  0  0
    3.1730   -5.2150   16.8150 C   0  0  0  0  0  0  0  0  0  0  0  0
    2.4830   -5.7830   15.7370 C   0  0  0  0  0  0  0  0  0  0  0  0
    3.2480   -3.7130   16.9550 C   0  0  0  0  0  0  0  0  0  0  0  0
    4.1420   -1.5180   16.2970 C   0  0  0  0  0  0  0  0  0  0  0  0
    5.2510   -0.5280   15.8910 C   0  0  1  0  0  0  0  0  0  0  0  0
    5.5400   -0.3610   14.3650 C   0  0  2  0  0  0  0  0  0  0  0  0
    3.4550   -0.3930   12.9620 C   0  0  0  0  0  0  0  0  0  0  0  0
    2.5260    0.4490   12.0680 C   0  0  1  0  0  0  0  0  0  0  0  0
    1.8930    1.5770   12.7440 O   0  0  0  0  0  0  0  0  0  0  0  0
    6.8220    0.4870   14.1500 C   0  0  0  0  0  0  0  0  0  0  0  0
    1.7220    2.6420   11.9030 C   0  0  0  0  0  0  0  0  0  0  0  0
    1.1120    3.6640   12.1560 O   0  0  0  0  0  0  0  0  0  0  0  0
    2.4980    2.4170   10.7900 N   0  0  0  0  0  0  0  0  0  0  0  0
    3.2080    1.1370   10.8680 C   0  0  0  0  0  0  0  0  0  0  0  0
    2.5390    3.2340    9.6350 C   0  0  0  0  0  0  0  0  0  0  0  0
    3.7700    3.5670    9.0510 C   0  0  0  0  0  0  0  0  0  0  0  0
    3.8300    4.3680    7.8900 C   0  0  0  0  0  0  0  0  0  0  0  0
    2.6240    4.8200    7.3090 C   0  0  0  0  0  0  0  0  0  0  0  0
    1.3880    4.4830    7.8880 C   0  0  0  0  0  0  0  0  0  0  0  0
    1.3490    3.6950    9.0510 C   0  0  0  0  0  0  0  0  0  0  0  0
    5.1650    4.7440    7.3040 C   0  0  0  0  0  0  0  0  0  0  0  0
    6.1350    4.9730    8.0040 O   0  0  0  0  0  0  0  0  0  0  0  0
    5.2890    4.8460    5.8200 C   0  0  0  0  0  0  0  0  0  0  0  0
    6.9600   -6.5760   16.2350 H   0  0  0  0  0  0  0  0  0  0  0  0
    6.3420   -8.0500   17.7930 H   0  0  0  0  0  0  0  0  0  0  0  0
    8.0850   -8.4130   17.7380 H   0  0  0  0  0  0  0  0  0  0  0  0
    7.2890   -8.1030   19.3110 H   0  0  0  0  0  0  0  0  0  0  0  0
    5.6840   -3.8620   17.5130 H   0  0  0  0  0  0  0  0  0  0  0  0
    4.4160    1.3020   13.5620 H   0  0  0  0  0  0  0  0  0  0  0  0
    4.8880    1.2930   15.5560 H   0  0  0  0  0  0  0  0  0  0  0  0
    6.6620    2.9430   12.9610 H   0  0  0  0  0  0  0  0  0  0  0  0
    7.0890    3.5250   10.5770 H   0  0  0  0  0  0  0  0  0  0  0  0
    7.7540    1.7420    8.9670 H   0  0  0  0  0  0  0  0  0  0  0  0
    8.0420   -0.6070    9.7540 H   0  0  0  0  0  0  0  0  0  0  0  0
    7.5960   -1.1820   12.1450 H   0  0  0  0  0  0  0  0  0  0  0  0
    8.1660   -3.9860   17.2430 H   0  0  0  0  0  0  0  0  0  0  0  0
    4.2050   -3.2990   15.0380 H   0  0  0  0  0  0  0  0  0  0  0  0
    8.6400   -4.9630   14.4200 H   0  0  0  0  0  0  0  0  0  0  0  0
   10.6920   -3.5700   14.6440 H   0  0  0  0  0  0  0  0  0  0  0  0
    9.2820   -2.6260   15.1370 H   0  0  0  0  0  0  0  0  0  0  0  0
   10.3700   -3.3060   16.3680 H   0  0  0  0  0  0  0  0  0  0  0  0
   10.8130   -5.9780   15.1130 H   0  0  0  0  0  0  0  0  0  0  0  0
   10.3710   -5.7850   16.8280 H   0  0  0  0  0  0  0  0  0  0  0  0
    9.4500   -6.8790   15.7740 H   0  0  0  0  0  0  0  0  0  0  0  0
    1.7920   -7.6110   14.8180 H   0  0  0  0  0  0  0  0  0  0  0  0
    2.7420   -9.0860   16.5930 H   0  0  0  0  0  0  0  0  0  0  0  0
    3.9620   -8.0750   18.5220 H   0  0  0  0  0  0  0  0  0  0  0  0
    4.2350   -5.6010   18.6570 H   0  0  0  0  0  0  0  0  0  0  0  0
    2.0480   -5.1390   14.9780 H   0  0  0  0  0  0  0  0  0  0  0  0
    2.2700   -3.2870   16.7090 H   0  0  0  0  0  0  0  0  0  0  0  0
    3.4050   -3.4630   18.0110 H   0  0  0  0  0  0  0  0  0  0  0  0
    3.9960   -1.3550   17.3660 H   0  0  0  0  0  0  0  0  0  0  0  0
    3.2100   -1.2150   15.8100 H   0  0  0  0  0  0  0  0  0  0  0  0
    6.1890   -0.8030   16.4040 H   0  0  0  0  0  0  0  0  0  0  0  0
    5.7060   -1.3620   13.9430 H   0  0  0  0  0  0  0  0  0  0  0  0
    1.7560   -0.2520   11.7140 H   0  0  0  0  0  0  0  0  0  0  0  0
    6.7860    1.4000   14.7570 H   0  0  0  0  0  0  0  0  0  0  0  0
    7.6830   -0.0590   14.5550 H   0  0  0  0  0  0  0  0  0  0  0  0
    3.0820    0.5600    9.9390 H   0  0  0  0  0  0  0  0  0  0  0  0
    4.2880    1.2920   11.0410 H   0  0  0  0  0  0  0  0  0  0  0  0
    4.6880    3.2000    9.5020 H   0  0  0  0  0  0  0  0  0  0  0  0
    2.6430    5.4470    6.4170 H   0  0  0  0  0  0  0  0  0  0  0  0
    0.4620    4.8440    7.4380 H   0  0  0  0  0  0  0  0  0  0  0  0
    0.3930    3.4360    9.5000 H   0  0  0  0  0  0  0  0  0  0  0  0
    6.3390    4.7270    5.5350 H   0  0  0  0  0  0  0  0  0  0  0  0
    4.6960    4.0540    5.3510 H   0  0  0  0  0  0  0  0  0  0  0  0
    4.9270    5.8240    5.4910 H   0  0  0  0  0  0  0  0  0  0  0  0
  1  5  1  0  0  0  0
  1 16  1  0  0  0  0
  1 49  1  0  0  0  0
  2  5  2  0  0  0  0
  3  5  1  0  0  0  0
  3 50  1  0  0  0  0
  3 51  1  0  0  0  0
  3 52  1  0  0  0  0
  4 17  2  0  0  0  0
  6 17  1  0  0  0  0
  6 18  1  0  0  0  0
  6 53  1  0  0  0  0
  7 10  2  0  0  0  0
  7 15  1  0  0  0  0
  7 35  1  0  0  0  0
  8 31  1  0  0  0  0
  8 32  1  0  0  0  0
  8 54  1  0  0  0  0
  9 30  1  0  0  0  0
  9 55  1  0  0  0  0
 10 12  1  0  0  0  0
 10 56  1  0  0  0  0
 11 32  2  0  0  0  0
 12 13  2  0  0  0  0
 12 57  1  0  0  0  0
 13 14  1  0  0  0  0
 13 58  1  0  0  0  0
 14 15  2  0  0  0  0
 14 59  1  0  0  0  0
 15 60  1  0  0  0  0
 16 17  1  0  0  0  0
 16 19  1  0  0  0  0
 16 61  1  1  0  0  0
 18 28  1  0  0  0  0
 18 29  1  0  0  0  0
 18 62  1  6  0  0  0
 19 20  1  0  0  0  0
 19 21  1  0  0  0  0
 19 63  1  0  0  0  0
 20 64  1  0  0  0  0
 20 65  1  0  0  0  0
 20 66  1  0  0  0  0
 21 67  1  0  0  0  0
 21 68  1  0  0  0  0
 21 69  1  0  0  0  0
 22 23  2  0  0  0  0
 22 27  1  0  0  0  0
 22 70  1  0  0  0  0
 23 24  1  0  0  0  0
 23 71  1  0  0  0  0
 24 25  2  0  0  0  0
 24 72  1  0  0  0  0
 25 26  1  0  0  0  0
 25 73  1  0  0  0  0
 26 27  2  0  0  0  0
 26 28  1  0  0  0  0
 27 74  1  0  0  0  0
 28 75  1  0  0  0  0
 28 76  1  0  0  0  0
 29 30  1  0  0  0  0
 29 77  1  0  0  0  0
 29 78  1  0  0  0  0
 30 31  1  0  0  0  0
 30 79  1  1  0  0  0
 31 35  1  0  0  0  0
 31 80  1  6  0  0  0
 32 33  1  0  0  0  0
 33 34  1  0  0  0  0
 33 39  1  0  0  0  0
 33 81  1  6  0  0  0
 34 36  1  0  0  0  0
 35 82  1  0  0  0  0
 35 83  1  0  0  0  0
 36 37  2  0  0  0  0
 36 38  1  0  0  0  0
 38 39  1  0  0  0  0
 38 40  1  0  0  0  0
 39 84  1  0  0  0  0
 39 85  1  0  0  0  0
 40 41  2  0  0  0  0
 40 45  1  0  0  0  0
 41 42  1  0  0  0  0
 41 86  1  0  0  0  0
 42 43  2  0  0  0  0
 42 46  1  0  0  0  0
 43 44  1  0  0  0  0
 43 87  1  0  0  0  0
 44 45  2  0  0  0  0
 44 88  1  0  0  0  0
 45 89  1  0  0  0  0
 46 47  2  0  0  0  0
 46 48  1  0  0  0  0
 48 90  1  0  0  0  0
 48 91  1  0  0  0  0
 48 92  1  0  0  0  0
M  END
>  <charge>
0

>  <KI_NM>
0.98

>  <number_of_rotatable_bonds>
18

>  <lm5_entropy_jk>
45.88404741205561

>  <ligand_crystal_conformation>
A

$$$$
