6T0M
 OpenBabel11252210453D

 56 58  0  0  1  0  0  0  0  0999 V2000
   -0.3990   20.8620   15.7180 N   0  3  0  0  0  0  0  0  0  0  0  0
    0.8970   21.0170   16.5550 C   0  0  1  0  0  0  0  0  0  0  0  0
   -0.5380   18.3260   19.8820 O   0  0  0  0  0  0  0  0  0  0  0  0
    1.2230   19.6780   17.2480 C   0  0  0  0  0  0  0  0  0  0  0  0
    1.6850   19.7120   18.5620 N   0  0  0  0  0  0  0  0  0  0  0  0
    0.9830   18.6220   16.6860 O   0  0  0  0  0  0  0  0  0  0  0  0
    1.8480   18.4680   19.3480 C   0  0  2  0  0  0  0  0  0  0  0  0
    0.5430   16.3590   19.4680 N   0  0  0  0  0  0  0  0  0  0  0  0
    0.4930   17.7390   19.5910 C   0  0  0  0  0  0  0  0  0  0  0  0
   -1.9390   13.3250   15.2130 N   0  0  0  0  0  0  0  0  0  0  0  0
   -0.6500   15.4380   19.4560 C   0  0  0  0  0  0  0  0  0  0  0  0
   -2.5780   15.5110   15.6310 N   0  3  0  0  0  0  0  0  0  0  0  0
   -1.3330   15.3600   18.1170 C   0  0  0  0  0  0  0  0  0  0  0  0
   -3.2390   17.7050   16.0510 N   0  0  0  0  0  0  0  0  0  0  0  0
   -1.2790   14.2820   17.2910 C   0  0  0  0  0  0  0  0  0  0  0  0
   -1.9470   14.3800   16.0540 C   0  0  0  0  0  0  0  0  0  0  0  0
   -2.6230   16.5920   16.4750 C   0  0  0  0  0  0  0  0  0  0  0  0
   -2.0600   16.4890   17.7020 C   0  0  0  0  0  0  0  0  0  0  0  0
    2.5850   18.8650   20.6520 C   0  0  0  0  0  0  0  0  0  0  0  0
    2.5700   20.4100   20.7050 C   0  0  0  0  0  0  0  0  0  0  0  0
    2.2790   20.8700   19.2660 C   0  0  0  0  0  0  0  0  0  0  0  0
    2.0830   21.5780   15.6850 C   0  0  0  0  0  0  0  0  0  0  0  0
    3.1080   22.3440   16.4980 C   0  0  0  0  0  0  0  0  0  0  0  0
    2.7150   23.4770   17.2300 C   0  0  0  0  0  0  0  0  0  0  0  0
    3.6520   24.1840   18.0050 C   0  0  0  0  0  0  0  0  0  0  0  0
    4.9920   23.7680   18.0300 C   0  0  0  0  0  0  0  0  0  0  0  0
    5.3970   22.6560   17.2750 C   0  0  0  0  0  0  0  0  0  0  0  0
    4.4540   21.9440   16.5120 C   0  0  0  0  0  0  0  0  0  0  0  0
   -0.6600   21.7260   15.2170 H   0  0  0  0  0  0  0  0  0  0  0  0
   -1.2120   20.6110   16.3020 H   0  0  0  0  0  0  0  0  0  0  0  0
   -0.3010   20.1040   15.0160 H   0  0  0  0  0  0  0  0  0  0  0  0
    0.6890   21.7030   17.3840 H   0  0  0  0  0  0  0  0  0  0  0  0
    2.4640   17.7740   18.7640 H   0  0  0  0  0  0  0  0  0  0  0  0
    1.4790   15.9690   19.3700 H   0  0  0  0  0  0  0  0  0  0  0  0
   -2.6900   13.2430   14.5250 H   0  0  0  0  0  0  0  0  0  0  0  0
   -1.6750   12.4430   15.6420 H   0  0  0  0  0  0  0  0  0  0  0  0
   -0.3590   14.4300   19.7820 H   0  0  0  0  0  0  0  0  0  0  0  0
   -1.3810   15.7860   20.1980 H   0  0  0  0  0  0  0  0  0  0  0  0
   -3.7530   17.6640   15.1810 H   0  0  0  0  0  0  0  0  0  0  0  0
   -3.5000   18.3960   16.7420 H   0  0  0  0  0  0  0  0  0  0  0  0
    3.6150   18.4800   20.6410 H   0  0  0  0  0  0  0  0  0  0  0  0
    2.0750   18.4390   21.5260 H   0  0  0  0  0  0  0  0  0  0  0  0
    1.7680   20.7650   21.3730 H   0  0  0  0  0  0  0  0  0  0  0  0
    3.5100   20.8390   21.0900 H   0  0  0  0  0  0  0  0  0  0  0  0
    1.6080   21.7430   19.2650 H   0  0  0  0  0  0  0  0  0  0  0  0
    3.2170   21.1630   18.7700 H   0  0  0  0  0  0  0  0  0  0  0  0
    1.7120   22.2640   14.9080 H   0  0  0  0  0  0  0  0  0  0  0  0
    2.5650   20.7640   15.1210 H   0  0  0  0  0  0  0  0  0  0  0  0
    1.6820   23.8200   17.1970 H   0  0  0  0  0  0  0  0  0  0  0  0
    3.3400   25.0590   18.5790 H   0  0  0  0  0  0  0  0  0  0  0  0
    5.7230   24.3170   18.6260 H   0  0  0  0  0  0  0  0  0  0  0  0
    6.4430   22.3510   17.2800 H   0  0  0  0  0  0  0  0  0  0  0  0
    4.7730   21.0800   15.9320 H   0  0  0  0  0  0  0  0  0  0  0  0
   -3.0000   15.5760   14.7180 H   0  0  0  0  0  0  0  0  0  0  0  0
   -0.7480   13.3790   17.5670 H   0  0  0  0  0  0  0  0  0  0  0  0
   -2.1070   17.3460   18.3580 H   0  0  0  0  0  0  0  0  0  0  0  0
  1  2  1  0  0  0  0
  1 29  1  0  0  0  0
  1 30  1  0  0  0  0
  1 31  1  0  0  0  0
  2  4  1  0  0  0  0
  2 22  1  0  0  0  0
  2 32  1  1  0  0  0
  3  9  2  0  0  0  0
  4  5  1  0  0  0  0
  4  6  2  0  0  0  0
  5  7  1  0  0  0  0
  5 21  1  0  0  0  0
  7  9  1  0  0  0  0
  7 19  1  0  0  0  0
  7 33  1  6  0  0  0
  8  9  1  0  0  0  0
  8 11  1  0  0  0  0
  8 34  1  0  0  0  0
 10 16  1  0  0  0  0
 10 35  1  0  0  0  0
 10 36  1  0  0  0  0
 11 13  1  0  0  0  0
 11 37  1  0  0  0  0
 11 38  1  0  0  0  0
 12 16  2  0  0  0  0
 12 17  1  0  0  0  0
 12 54  1  0  0  0  0
 13 15  2  0  0  0  0
 13 18  1  0  0  0  0
 14 17  1  0  0  0  0
 14 39  1  0  0  0  0
 14 40  1  0  0  0  0
 15 16  1  0  0  0  0
 15 55  1  0  0  0  0
 17 18  2  0  0  0  0
 18 56  1  0  0  0  0
 19 20  1  0  0  0  0
 19 41  1  0  0  0  0
 19 42  1  0  0  0  0
 20 21  1  0  0  0  0
 20 43  1  0  0  0  0
 20 44  1  0  0  0  0
 21 45  1  0  0  0  0
 21 46  1  0  0  0  0
 22 23  1  0  0  0  0
 22 47  1  0  0  0  0
 22 48  1  0  0  0  0
 23 24  2  0  0  0  0
 23 28  1  0  0  0  0
 24 25  1  0  0  0  0
 24 49  1  0  0  0  0
 25 26  2  0  0  0  0
 25 50  1  0  0  0  0
 26 27  1  0  0  0  0
 26 51  1  0  0  0  0
 27 28  2  0  0  0  0
 27 52  1  0  0  0  0
 28 53  1  0  0  0  0
M  CHG  2   1   1  12   1
M  END
>  <number_of_rotatable_bonds>
8

>  <lm5_entropy_jk>
21.57145520137845

>  <protonation_change>
deprotonated_in_solution

>  <protonation_site>
54

>  <protonation_pKa>
6.4

>  <protonation_pKa_method>
experiment

>  <experiment_pH>
7.8

>  <protonated_energy_kcalmol>
116.491059

>  <deprotonated_energy_kcalmol>
22.556134

>  <deltaG_kcalmol>
-5.69

>  <charge>
2

$$$$
