3n2v.pdb
 OpenBabel11252210453D

 42 43  0  0  0  0  0  0  0  0999 V2000
    7.9770   22.6840    0.9280 O   0  0  0  0  0  0  0  0  0  0  0  0
    8.5360   23.8790    1.4340 N   0  0  0  0  0  0  0  0  0  0  0  0
    8.0060   24.9890    0.6990 C   0  0  0  0  0  0  0  0  0  0  0  0
    8.8000   26.2790    0.9270 C   0  0  0  0  0  0  0  0  0  0  0  0
    6.9640   24.8200    0.0880 O   0  0  0  0  0  0  0  0  0  0  0  0
    8.0140   27.1500    1.8130 N   0  0  0  0  0  0  0  0  0  0  0  0
    8.2510   27.0550    3.5150 S   0  0  0  0  0  0  0  0  0  0  0  0
    7.4280   28.3730    1.2140 C   0  0  0  0  0  0  0  0  0  0  0  0
    8.4320   29.2500    0.4390 C   0  0  0  0  0  0  0  0  0  0  0  0
    8.6190   28.7570   -0.9020 O   0  0  0  0  0  0  0  0  0  0  0  0
    8.0430   28.3790    4.0860 O   0  0  0  0  0  0  0  0  0  0  0  0
    6.9840   25.9830    3.9570 C   0  0  0  0  0  0  0  0  0  0  0  0
    9.5500   26.4450    3.8060 O   0  0  0  0  0  0  0  0  0  0  0  0
    5.6710   26.4600    4.0480 C   0  0  0  0  0  0  0  0  0  0  0  0
    4.6450   25.6130    4.4570 C   0  0  0  0  0  0  0  0  0  0  0  0
    4.9190   24.2740    4.7980 C   0  0  0  0  0  0  0  0  0  0  0  0
    6.2180   23.7760    4.5910 C   0  0  0  0  0  0  0  0  0  0  0  0
    7.2470   24.6280    4.1870 C   0  0  0  0  0  0  0  0  0  0  0  0
    3.8770   23.4560    5.4520 C   0  0  0  0  0  0  0  0  0  0  0  0
    4.2630   22.4730    6.3800 C   0  0  0  0  0  0  0  0  0  0  0  0
    3.3030   21.7750    7.1130 C   0  0  0  0  0  0  0  0  0  0  0  0
    1.9430   22.0360    6.9240 C   0  0  0  0  0  0  0  0  0  0  0  0
    1.5500   22.9940    5.9850 C   0  0  0  0  0  0  0  0  0  0  0  0
    2.5070   23.6950    5.2480 C   0  0  0  0  0  0  0  0  0  0  0  0
    8.2380   21.9580    1.6950 H   0  0  0  0  0  0  0  0  0  0  0  0
    9.5680   23.7540    1.5470 H   0  0  0  0  0  0  0  0  0  0  0  0
    8.9840   26.7670   -0.0810 H   0  0  0  0  0  0  0  0  0  0  0  0
    9.8170   26.0640    1.3720 H   0  0  0  0  0  0  0  0  0  0  0  0
    6.5990   28.0730    0.5170 H   0  0  0  0  0  0  0  0  0  0  0  0
    6.9690   29.0010    2.0310 H   0  0  0  0  0  0  0  0  0  0  0  0
    8.0800   30.3080    0.3980 H   0  0  0  0  0  0  0  0  0  0  0  0
    9.4550   29.1850    0.8690 H   0  0  0  0  0  0  0  0  0  0  0  0
    7.8390   29.0010   -1.4580 H   0  0  0  0  0  0  0  0  0  0  0  0
    5.4400   27.5010    3.8060 H   0  0  0  0  0  0  0  0  0  0  0  0
    3.6240   25.9930    4.5150 H   0  0  0  0  0  0  0  0  0  0  0  0
    6.4420   22.7150    4.7300 H   0  0  0  0  0  0  0  0  0  0  0  0
    8.2580   24.2200    4.0480 H   0  0  0  0  0  0  0  0  0  0  0  0
    5.3200   22.2670    6.5570 H   0  0  0  0  0  0  0  0  0  0  0  0
    3.6260   21.0340    7.8380 H   0  0  0  0  0  0  0  0  0  0  0  0
    1.1910   21.4980    7.5030 H   0  0  0  0  0  0  0  0  0  0  0  0
    0.4880   23.1930    5.8180 H   0  0  0  0  0  0  0  0  0  0  0  0
    2.1660   24.4260    4.5100 H   0  0  0  0  0  0  0  0  0  0  0  0
  1  2  1  0  0  0  0
  1 25  1  0  0  0  0
  2  3  1  0  0  0  0
  2 26  1  0  0  0  0
  3  5  2  0  0  0  0
  3  4  1  0  0  0  0
  4  6  1  0  0  0  0
  4 27  1  0  0  0  0
  4 28  1  0  0  0  0
  6  8  1  0  0  0  0
  6  7  1  0  0  0  0
  7 13  2  0  0  0  0
  7 12  1  0  0  0  0
  7 11  2  0  0  0  0
  8  9  1  0  0  0  0
  8 29  1  0  0  0  0
  8 30  1  0  0  0  0
  9 10  1  0  0  0  0
  9 31  1  0  0  0  0
  9 32  1  0  0  0  0
 10 33  1  0  0  0  0
 12 18  2  0  0  0  0
 12 14  1  0  0  0  0
 14 15  2  0  0  0  0
 14 34  1  0  0  0  0
 15 16  1  0  0  0  0
 15 35  1  0  0  0  0
 16 17  2  0  0  0  0
 16 19  1  0  0  0  0
 17 18  1  0  0  0  0
 17 36  1  0  0  0  0
 18 37  1  0  0  0  0
 19 24  2  0  0  0  0
 19 20  1  0  0  0  0
 20 21  2  0  0  0  0
 20 38  1  0  0  0  0
 21 22  1  0  0  0  0
 21 39  1  0  0  0  0
 22 23  2  0  0  0  0
 22 40  1  0  0  0  0
 23 24  1  0  0  0  0
 23 41  1  0  0  0  0
 24 42  1  0  0  0  0
M  END
>  <COMPND>
3n2v.pdb

>  <AUTHOR>
GENERATED BY OPEN BABEL 2.3.1

>  <MASTER>
0    0    0    0    0    0    0    0   42    0   42    0

>  <lm5_entropy_jk>
22.689748683775868

>  <number_of_rotatable_bonds>
8

>  <deltaG_kcalmol>
-10.25

>  <charge>
0

$$$$
