3QTQ
 OpenBabel11252210453D

 30 31  0  0  1  0  0  0  0  0999 V2000
   65.8600  154.2440  -50.4730 N   0  0  0  0  0  0  0  0  0  0  0  0
   67.3670  153.4930  -52.0520 N   0  0  0  0  0  0  0  0  0  0  0  0
   70.7420  149.6050  -47.8320 N   0  0  0  0  0  0  0  0  0  0  0  0
   64.3770  154.5300  -48.6990 N   0  0  0  0  0  0  0  0  0  0  0  0
   66.9560  153.4880  -50.7900 C   0  0  0  0  0  0  0  0  0  0  0  0
   67.4800  152.6990  -49.8150 C   0  0  0  0  0  0  0  0  0  0  0  0
   68.6100  151.7910  -50.0370 C   0  0  0  0  0  0  0  0  0  0  0  0
   68.9700  150.8030  -48.9710 C   0  0  0  0  0  0  0  0  0  0  0  0
   70.3280  150.5300  -48.7280 C   0  0  0  0  0  0  0  0  0  0  0  0
   69.8090  148.8980  -47.1590 C   0  0  0  0  0  0  0  0  0  0  0  0
   68.4330  149.0910  -47.3560 C   0  0  0  0  0  0  0  0  0  0  0  0
   67.9980  150.0530  -48.2810 C   0  0  0  0  0  0  0  0  0  0  0  0
   65.5350  154.0100  -49.2160 C   0  0  0  0  0  0  0  0  0  0  0  0
   63.9900  154.4710  -47.2670 C   0  0  0  0  0  0  0  0  0  0  0  0
   62.5520  154.0840  -47.0790 C   0  0  0  0  0  0  0  0  0  0  0  0
   62.0730  153.8330  -45.8560 C   0  0  0  0  0  0  0  0  0  0  0  0
   69.2480  151.8130  -51.0750 O   0  0  0  0  0  0  0  0  0  0  0  0
   66.6060  152.9350  -48.3290 S   0  0  0  0  0  0  0  0  0  0  0  0
   67.0850  154.2300  -52.6850 H   0  0  0  0  0  0  0  0  0  0  0  0
   68.2290  152.9860  -52.2060 H   0  0  0  0  0  0  0  0  0  0  0  0
   71.1080  151.0660  -49.2800 H   0  0  0  0  0  0  0  0  0  0  0  0
   70.1700  148.1400  -46.4550 H   0  0  0  0  0  0  0  0  0  0  0  0
   67.7130  148.4920  -46.7990 H   0  0  0  0  0  0  0  0  0  0  0  0
   66.9350  150.1940  -48.4720 H   0  0  0  0  0  0  0  0  0  0  0  0
   63.8190  155.0890  -49.3460 H   0  0  0  0  0  0  0  0  0  0  0  0
   64.1470  155.4520  -46.7940 H   0  0  0  0  0  0  0  0  0  0  0  0
   64.5990  153.7390  -46.7180 H   0  0  0  0  0  0  0  0  0  0  0  0
   61.0410  153.5580  -45.6680 H   0  0  0  0  0  0  0  0  0  0  0  0
   62.7070  153.8930  -44.9700 H   0  0  0  0  0  0  0  0  0  0  0  0
   61.9340  154.0260  -47.9780 H   0  0  0  0  0  0  0  0  0  0  0  0
  1  5  1  0  0  0  0
  1 13  2  0  0  0  0
  2  5  1  0  0  0  0
  2 19  1  0  0  0  0
  2 20  1  0  0  0  0
  3  9  2  0  0  0  0
  3 10  1  0  0  0  0
  4 13  1  0  0  0  0
  4 14  1  0  0  0  0
  4 25  1  0  0  0  0
  5  6  2  0  0  0  0
  6 18  1  0  0  0  0
  7  6  1  0  0  0  0
  7  8  1  0  0  0  0
  7 17  2  0  0  0  0
  8  9  1  0  0  0  0
  8 12  2  0  0  0  0
  9 21  1  0  0  0  0
 10 11  2  0  0  0  0
 10 22  1  0  0  0  0
 11 12  1  0  0  0  0
 11 23  1  0  0  0  0
 12 24  1  0  0  0  0
 13 18  1  0  0  0  0
 14 15  1  0  0  0  0
 14 26  1  0  0  0  0
 14 27  1  0  0  0  0
 15 16  2  0  0  0  0
 15 30  1  0  0  0  0
 16 28  1  0  0  0  0
 16 29  1  0  0  0  0
M  END
>  <lm5_entropy_jk>
31.50116356131297

>  <number_of_rotatable_bonds>
5

>  <IC50_NM>
3100

>  <charge>
0

$$$$
