model16f
 OpenBabel11252210453D

 93 97  0  0  1  0  0  0  0  0999 V2000
    8.4340   -6.0740   17.5830 C   0  0  0  0  0  0  0  0  0  0  0  0
    5.8430    6.4070    6.3720 C   0  0  0  0  0  0  0  0  0  0  0  0
    8.0680   -5.3700   16.4310 O   0  0  0  0  0  0  0  0  0  0  0  0
    7.4360   -6.6750   18.3740 C   0  0  0  0  0  0  0  0  0  0  0  0
    6.0880    7.5450    6.7260 O   0  0  0  0  0  0  0  0  0  0  0  0
    6.5270   -3.5640   14.5690 O   0  0  0  0  0  0  0  0  0  0  0  0
    7.8250   -7.6760   19.2760 C   0  0  0  0  0  0  0  0  0  0  0  0
    5.4620   -3.3560   16.5810 N   0  0  0  0  0  0  0  0  0  0  0  0
    9.1650   -8.0450   19.3930 C   0  0  0  0  0  0  0  0  0  0  0  0
    7.4720    0.8380   12.8310 C   0  0  0  0  0  0  0  0  0  0  0  0
    4.7020    0.5270   13.6820 N   0  0  0  0  0  0  0  0  0  0  0  0
    5.2120    0.8250   16.4860 O   0  0  0  0  0  0  0  0  0  0  0  0
   10.1520   -7.3560   18.6870 C   0  0  0  0  0  0  0  0  0  0  0  0
    7.3780    2.1600   12.3680 C   0  0  0  0  0  0  0  0  0  0  0  0
    4.4650   -1.0470   12.0540 O   0  0  0  0  0  0  0  0  0  0  0  0
    9.8040   -6.3300   17.7970 C   0  0  0  0  0  0  0  0  0  0  0  0
    7.6270    2.4480   11.0240 C   0  0  0  0  0  0  0  0  0  0  0  0
    6.0110   -6.2680   18.2710 C   0  0  0  0  0  0  0  0  0  0  0  0
    7.9510    1.4190   10.1350 C   0  0  0  0  0  0  0  0  0  0  0  0
   10.8530   -5.5250   17.1140 C   0  0  0  0  0  0  0  0  0  0  0  0
    8.0720    0.1050   10.6000 C   0  0  0  0  0  0  0  0  0  0  0  0
    7.8470   -0.1860   11.9460 C   0  0  0  0  0  0  0  0  0  0  0  0
    7.8540   -3.9490   16.5800 C   0  0  0  0  0  0  0  0  0  0  0  0
    6.5760   -3.6240   15.7860 C   0  0  0  0  0  0  0  0  0  0  0  0
    4.1980   -2.8000   16.0410 C   0  0  1  0  0  0  0  0  0  0  0  0
    6.1680    5.8810    5.0120 C   0  0  0  0  0  0  0  0  0  0  0  0
    2.2550   -6.8310   15.5710 C   0  0  0  0  0  0  0  0  0  0  0  0
    2.4600   -7.6070   16.7170 C   0  0  0  0  0  0  0  0  0  0  0  0
    2.8210   -6.9870   17.9160 C   0  0  0  0  0  0  0  0  0  0  0  0
    3.0030   -5.6020   17.9630 C   0  0  0  0  0  0  0  0  0  0  0  0
    2.8220   -4.8260   16.8090 C   0  0  0  0  0  0  0  0  0  0  0  0
    2.4340   -5.4470   15.6110 C   0  0  0  0  0  0  0  0  0  0  0  0
    3.0070   -3.3380   16.8770 C   0  0  0  0  0  0  0  0  0  0  0  0
    4.1730   -1.2600   16.1740 C   0  0  0  0  0  0  0  0  0  0  0  0
    5.4420   -0.4690   15.8610 C   0  0  1  0  0  0  0  0  0  0  0  0
    5.7780   -0.2340   14.3660 C   0  0  2  0  0  0  0  0  0  0  0  0
    4.2120    0.0760   12.4710 C   0  0  0  0  0  0  0  0  0  0  0  0
    3.2420    0.9920   11.7000 C   0  0  1  0  0  0  0  0  0  0  0  0
    3.0670    2.2520   12.4170 O   0  0  0  0  0  0  0  0  0  0  0  0
    7.1290    0.5200   14.2580 C   0  0  0  0  0  0  0  0  0  0  0  0
    3.2780    3.3500   11.5680 C   0  0  0  0  0  0  0  0  0  0  0  0
    3.1250    4.4700   11.9700 O   0  0  0  0  0  0  0  0  0  0  0  0
    3.5710    2.8720   10.2740 N   0  0  0  0  0  0  0  0  0  0  0  0
    3.7540    1.3900   10.2950 C   0  0  0  0  0  0  0  0  0  0  0  0
    4.1370    3.7120    9.2510 C   0  0  0  0  0  0  0  0  0  0  0  0
    5.3530    3.4000    8.6270 C   0  0  0  0  0  0  0  0  0  0  0  0
    5.8810    4.2620    7.6650 C   0  0  0  0  0  0  0  0  0  0  0  0
    5.2090    5.4440    7.3340 C   0  0  0  0  0  0  0  0  0  0  0  0
    3.9710    5.7340    7.9270 C   0  0  0  0  0  0  0  0  0  0  0  0
    3.4300    4.8740    8.8840 C   0  0  0  0  0  0  0  0  0  0  0  0
    5.3450   -6.9860   18.8100 H   0  0  0  0  0  0  0  0  0  0  0  0
    5.6780   -6.2180   17.2070 H   0  0  0  0  0  0  0  0  0  0  0  0
    5.8620   -5.2610   18.7280 H   0  0  0  0  0  0  0  0  0  0  0  0
    5.5260   -3.3410   17.6150 H   0  0  0  0  0  0  0  0  0  0  0  0
    4.5640    1.4920   13.9970 H   0  0  0  0  0  0  0  0  0  0  0  0
    6.0530    0.9900   17.0490 H   0  0  0  0  0  0  0  0  0  0  0  0
    7.1180    2.9650   13.0560 H   0  0  0  0  0  0  0  0  0  0  0  0
    7.0700   -8.1940   19.8740 H   0  0  0  0  0  0  0  0  0  0  0  0
    7.5720    3.4780   10.6650 H   0  0  0  0  0  0  0  0  0  0  0  0
    8.1070    1.6440    9.0790 H   0  0  0  0  0  0  0  0  0  0  0  0
    9.4440   -8.8750   20.0500 H   0  0  0  0  0  0  0  0  0  0  0  0
    8.3400   -0.6870    9.9020 H   0  0  0  0  0  0  0  0  0  0  0  0
   11.1950   -7.6490   18.8110 H   0  0  0  0  0  0  0  0  0  0  0  0
    7.9650   -1.2050   12.3110 H   0  0  0  0  0  0  0  0  0  0  0  0
    7.7530   -3.6590   17.6390 H   0  0  0  0  0  0  0  0  0  0  0  0
    4.0910   -3.1080   14.9710 H   0  0  0  0  0  0  0  0  0  0  0  0
    8.7290   -3.4450   16.1040 H   0  0  0  0  0  0  0  0  0  0  0  0
   11.8490   -6.0230   17.1890 H   0  0  0  0  0  0  0  0  0  0  0  0
   10.9380   -4.5230   17.6070 H   0  0  0  0  0  0  0  0  0  0  0  0
   10.6020   -5.3730   16.0380 H   0  0  0  0  0  0  0  0  0  0  0  0
    7.1480    5.3340    5.0360 H   0  0  0  0  0  0  0  0  0  0  0  0
    6.8270    4.0000    7.1790 H   0  0  0  0  0  0  0  0  0  0  0  0
    1.9540   -7.3080   14.6430 H   0  0  0  0  0  0  0  0  0  0  0  0
    2.3380   -8.6900   16.6870 H   0  0  0  0  0  0  0  0  0  0  0  0
    2.9580   -7.5820   18.8220 H   0  0  0  0  0  0  0  0  0  0  0  0
    3.2850   -5.1260   18.9030 H   0  0  0  0  0  0  0  0  0  0  0  0
    2.2590   -4.8420   14.7250 H   0  0  0  0  0  0  0  0  0  0  0  0
    2.0750   -2.8330   16.5220 H   0  0  0  0  0  0  0  0  0  0  0  0
    3.1540   -3.0350   17.9480 H   0  0  0  0  0  0  0  0  0  0  0  0
    3.9910   -1.0470   17.2620 H   0  0  0  0  0  0  0  0  0  0  0  0
    3.3140   -0.8670   15.5800 H   0  0  0  0  0  0  0  0  0  0  0  0
    6.3290   -0.9340   16.3610 H   0  0  0  0  0  0  0  0  0  0  0  0
    5.8850   -1.2460   13.8790 H   0  0  0  0  0  0  0  0  0  0  0  0
    2.2240    0.5230   11.6730 H   0  0  0  0  0  0  0  0  0  0  0  0
    7.0770    1.4570   14.8720 H   0  0  0  0  0  0  0  0  0  0  0  0
    7.9320   -0.1050   14.7260 H   0  0  0  0  0  0  0  0  0  0  0  0
    3.1200    0.9400    9.4860 H   0  0  0  0  0  0  0  0  0  0  0  0
    4.8260    1.1050   10.1330 H   0  0  0  0  0  0  0  0  0  0  0  0
    5.8960    2.4820    8.8580 H   0  0  0  0  0  0  0  0  0  0  0  0
    6.2530    6.6980    4.2540 H   0  0  0  0  0  0  0  0  0  0  0  0
    3.4140    6.6320    7.6360 H   0  0  0  0  0  0  0  0  0  0  0  0
    2.4570    5.1070    9.3260 H   0  0  0  0  0  0  0  0  0  0  0  0
    5.3950    5.1540    4.6560 H   0  0  0  0  0  0  0  0  0  0  0  0
  1  3  1  0  0  0  0
  1  4  2  0  0  0  0
  1 16  1  0  0  0  0
  2  5  2  0  0  0  0
  2 26  1  0  0  0  0
  2 48  1  0  0  0  0
  3 23  1  0  0  0  0
  4  7  1  0  0  0  0
  4 18  1  0  0  0  0
  6 24  2  0  0  0  0
  7  9  2  0  0  0  0
  7 58  1  0  0  0  0
  8 24  1  0  0  0  0
  8 25  1  0  0  0  0
  8 54  1  0  0  0  0
  9 13  1  0  0  0  0
  9 61  1  0  0  0  0
 10 14  2  0  0  0  0
 10 22  1  0  0  0  0
 10 40  1  0  0  0  0
 11 36  1  0  0  0  0
 11 37  1  0  0  0  0
 11 55  1  0  0  0  0
 12 35  1  0  0  0  0
 12 56  1  0  0  0  0
 13 16  2  0  0  0  0
 13 63  1  0  0  0  0
 14 17  1  0  0  0  0
 14 57  1  0  0  0  0
 15 37  2  0  0  0  0
 16 20  1  0  0  0  0
 17 19  2  0  0  0  0
 17 59  1  0  0  0  0
 18 51  1  0  0  0  0
 18 52  1  0  0  0  0
 18 53  1  0  0  0  0
 19 21  1  0  0  0  0
 19 60  1  0  0  0  0
 20 68  1  0  0  0  0
 20 69  1  0  0  0  0
 20 70  1  0  0  0  0
 21 22  2  0  0  0  0
 21 62  1  0  0  0  0
 22 64  1  0  0  0  0
 23 24  1  0  0  0  0
 23 65  1  0  0  0  0
 23 67  1  0  0  0  0
 25 33  1  0  0  0  0
 25 34  1  0  0  0  0
 25 66  1  6  0  0  0
 26 71  1  0  0  0  0
 26 90  1  0  0  0  0
 26 93  1  0  0  0  0
 27 28  2  0  0  0  0
 27 32  1  0  0  0  0
 27 73  1  0  0  0  0
 28 29  1  0  0  0  0
 28 74  1  0  0  0  0
 29 30  2  0  0  0  0
 29 75  1  0  0  0  0
 30 31  1  0  0  0  0
 30 76  1  0  0  0  0
 31 32  2  0  0  0  0
 31 33  1  0  0  0  0
 32 77  1  0  0  0  0
 33 78  1  0  0  0  0
 33 79  1  0  0  0  0
 34 35  1  0  0  0  0
 34 80  1  0  0  0  0
 34 81  1  0  0  0  0
 35 36  1  0  0  0  0
 35 82  1  1  0  0  0
 36 40  1  0  0  0  0
 36 83  1  6  0  0  0
 37 38  1  0  0  0  0
 38 39  1  0  0  0  0
 38 44  1  0  0  0  0
 38 84  1  6  0  0  0
 39 41  1  0  0  0  0
 40 85  1  0  0  0  0
 40 86  1  0  0  0  0
 41 42  2  0  0  0  0
 41 43  1  0  0  0  0
 43 44  1  0  0  0  0
 43 45  1  0  0  0  0
 44 87  1  0  0  0  0
 44 88  1  0  0  0  0
 45 46  2  0  0  0  0
 45 50  1  0  0  0  0
 46 47  1  0  0  0  0
 46 89  1  0  0  0  0
 47 48  2  0  0  0  0
 47 72  1  0  0  0  0
 48 49  1  0  0  0  0
 49 50  2  0  0  0  0
 49 91  1  0  0  0  0
 50 92  1  0  0  0  0
M  END
>  <charge>
0

>  <KI_NM>
39.87

>  <number_of_rotatable_bonds>
17

>  <lm5_entropy_jk>
43.769413455775634

>  <ligand_crystal_conformation>
A

$$$$
