model22
 OpenBabel11252210453D

 84 86  0  0  1  0  0  0  0  0999 V2000
   14.0370   12.1860    7.5040 C   0  0  0  0  0  0  0  0  0  0  0  0
    7.3260   17.9160    9.7420 C   0  0  2  0  0  0  0  0  0  0  0  0
   13.0650   12.0950    8.5100 N   0  0  0  0  0  0  0  0  0  0  0  0
    8.4550   18.3640    8.9020 N   0  0  0  0  0  0  0  0  0  0  0  0
    5.8280   19.1760    8.2760 O   0  0  0  0  0  0  0  0  0  0  0  0
   14.7650   11.1700    6.8510 C   0  0  0  0  0  0  0  0  0  0  0  0
   13.0360   15.7920    8.0250 C   0  0  0  0  0  0  0  0  0  0  0  0
   11.7370   15.8710    5.8760 N   0  0  0  0  0  0  0  0  0  0  0  0
    8.3130   16.5580    7.5120 O   0  0  0  0  0  0  0  0  0  0  0  0
   15.6990   11.5610    5.9100 C   0  0  0  0  0  0  0  0  0  0  0  0
   11.7030   16.1760    7.3130 C   0  0  2  0  0  0  0  0  0  0  0  0
    4.9200   17.4190    9.4210 N   0  0  0  0  0  0  0  0  0  0  0  0
   10.4390   13.9620    5.9220 O   0  0  0  0  0  0  0  0  0  0  0  0
   15.9320   12.9310    5.6300 C   0  0  0  0  0  0  0  0  0  0  0  0
   11.3930   17.7030    7.5330 C   0  0  1  0  0  0  0  0  0  0  0  0
   12.3490   18.4940    6.7910 O   0  0  0  0  0  0  0  0  0  0  0  0
   15.2140   13.9300    6.2660 C   0  0  0  0  0  0  0  0  0  0  0  0
   10.0250   18.1770    6.9920 C   0  0  0  0  0  0  0  0  0  0  0  0
   14.2150   13.5810    7.1940 C   0  0  0  0  0  0  0  0  0  0  0  0
    8.8580   17.6170    7.7770 C   0  0  0  0  0  0  0  0  0  0  0  0
   11.0680   14.7860    5.2770 C   0  0  0  0  0  0  0  0  0  0  0  0
   13.2920   14.3260    8.0260 C   0  0  0  0  0  0  0  0  0  0  0  0
   12.6510   13.4010    8.8420 C   0  0  0  0  0  0  0  0  0  0  0  0
   11.1540   14.7950    3.7540 C   0  0  0  0  0  0  0  0  0  0  0  0
    3.5830   17.4750    8.7750 C   0  0  0  0  0  0  0  0  0  0  0  0
    9.7830   15.1250    3.1350 C   0  0  0  0  0  0  0  0  0  0  0  0
    9.0790   16.2950    3.8400 C   0  0  0  0  0  0  0  0  0  0  0  0
    7.6730   16.5790    3.2830 C   0  0  0  0  0  0  0  0  0  0  0  0
    6.7660   17.1700    4.3780 C   0  0  0  0  0  0  0  0  0  0  0  0
    5.3100   17.3090    3.9070 C   0  0  0  0  0  0  0  0  0  0  0  0
    3.1470   16.0920    8.2450 C   0  0  0  0  0  0  0  0  0  0  0  0
    5.9810   18.2410    9.0470 C   0  0  0  0  0  0  0  0  0  0  0  0
    7.4220   18.5200   11.1750 C   0  0  0  0  0  0  0  0  0  0  0  0
    2.8850   16.0700    6.7310 C   0  0  0  0  0  0  0  0  0  0  0  0
    4.1650   16.1250    5.8750 C   0  0  0  0  0  0  0  0  0  0  0  0
    4.2900   17.4190    5.0540 C   0  0  0  0  0  0  0  0  0  0  0  0
    6.6290   17.6720   12.1790 C   0  0  0  0  0  0  0  0  0  0  0  0
    7.0070   19.9900   11.2280 C   0  0  0  0  0  0  0  0  0  0  0  0
    7.5970   20.5820   10.4970 H   0  0  0  0  0  0  0  0  0  0  0  0
    8.7670   19.3410    9.0280 H   0  0  0  0  0  0  0  0  0  0  0  0
    7.4130   16.8050    9.8710 H   0  0  0  0  0  0  0  0  0  0  0  0
   12.9700   16.1600    9.0830 H   0  0  0  0  0  0  0  0  0  0  0  0
   10.8680   15.6000    7.7900 H   0  0  0  0  0  0  0  0  0  0  0  0
   11.4840   17.9480    8.6160 H   0  0  0  0  0  0  0  0  0  0  0  0
    9.9250   17.8560    5.9220 H   0  0  0  0  0  0  0  0  0  0  0  0
   11.9660   13.5800    9.6510 H   0  0  0  0  0  0  0  0  0  0  0  0
   12.8090   11.2610    9.0170 H   0  0  0  0  0  0  0  0  0  0  0  0
   14.6080   10.1200    7.0920 H   0  0  0  0  0  0  0  0  0  0  0  0
   16.2870   10.8070    5.3760 H   0  0  0  0  0  0  0  0  0  0  0  0
   16.7050   13.1930    4.9030 H   0  0  0  0  0  0  0  0  0  0  0  0
   11.4850   13.7920    3.3920 H   0  0  0  0  0  0  0  0  0  0  0  0
   15.4420   14.9760    6.0790 H   0  0  0  0  0  0  0  0  0  0  0  0
    3.6030   18.2280    7.9460 H   0  0  0  0  0  0  0  0  0  0  0  0
    9.1440   14.2150    3.1790 H   0  0  0  0  0  0  0  0  0  0  0  0
    9.7090   17.2080    3.7280 H   0  0  0  0  0  0  0  0  0  0  0  0
    7.2180   15.6380    2.9000 H   0  0  0  0  0  0  0  0  0  0  0  0
    7.1530   18.1710    4.6690 H   0  0  0  0  0  0  0  0  0  0  0  0
    5.0410   16.4370    3.2670 H   0  0  0  0  0  0  0  0  0  0  0  0
    2.2040   15.7990    8.7710 H   0  0  0  0  0  0  0  0  0  0  0  0
   12.4840   16.3710    5.3650 H   0  0  0  0  0  0  0  0  0  0  0  0
    5.1000   16.5560    9.9650 H   0  0  0  0  0  0  0  0  0  0  0  0
    8.4950   18.4280   11.4760 H   0  0  0  0  0  0  0  0  0  0  0  0
    2.2060   16.9180    6.4720 H   0  0  0  0  0  0  0  0  0  0  0  0
    4.1620   15.2560    5.1780 H   0  0  0  0  0  0  0  0  0  0  0  0
    3.3010   17.6680    4.6010 H   0  0  0  0  0  0  0  0  0  0  0  0
   12.9230   19.0150    7.4600 H   0  0  0  0  0  0  0  0  0  0  0  0
    6.9550   16.6100   12.1310 H   0  0  0  0  0  0  0  0  0  0  0  0
    7.1720   20.3990   12.2490 H   0  0  0  0  0  0  0  0  0  0  0  0
   13.8790   16.3330    7.5340 H   0  0  0  0  0  0  0  0  0  0  0  0
   10.0200   19.2920    7.0140 H   0  0  0  0  0  0  0  0  0  0  0  0
   11.8960   15.5500    3.3960 H   0  0  0  0  0  0  0  0  0  0  0  0
    2.8570   17.8170    9.5620 H   0  0  0  0  0  0  0  0  0  0  0  0
    9.9470   15.3940    2.0630 H   0  0  0  0  0  0  0  0  0  0  0  0
    8.9770   16.0590    4.9270 H   0  0  0  0  0  0  0  0  0  0  0  0
    7.7470   17.2900    2.4310 H   0  0  0  0  0  0  0  0  0  0  0  0
    6.8030   16.5070    5.2730 H   0  0  0  0  0  0  0  0  0  0  0  0
    5.2300   18.2290    3.2850 H   0  0  0  0  0  0  0  0  0  0  0  0
    3.9180   15.3250    8.4960 H   0  0  0  0  0  0  0  0  0  0  0  0
    2.3360   15.1250    6.4960 H   0  0  0  0  0  0  0  0  0  0  0  0
    5.0570   16.0400    6.5380 H   0  0  0  0  0  0  0  0  0  0  0  0
    4.5830   18.2510    5.7340 H   0  0  0  0  0  0  0  0  0  0  0  0
    5.5340   17.7200   11.9850 H   0  0  0  0  0  0  0  0  0  0  0  0
    5.9260   20.1020   10.9890 H   0  0  0  0  0  0  0  0  0  0  0  0
    6.8080   18.0510   13.2110 H   0  0  0  0  0  0  0  0  0  0  0  0
  1  3  1  0  0  0  0
  2 41  1  1  0  0  0
  2 33  1  0  0  0  0
  3 47  1  0  0  0  0
  3 23  1  0  0  0  0
  4 40  1  0  0  0  0
  4  2  1  0  0  0  0
  5 32  2  0  0  0  0
  6 48  1  0  0  0  0
  6  1  2  0  0  0  0
  7 42  1  0  0  0  0
  8 11  1  0  0  0  0
  9 20  2  0  0  0  0
 10  6  1  0  0  0  0
 11 43  1  1  0  0  0
 11 15  1  0  0  0  0
 11  7  1  0  0  0  0
 12 61  1  0  0  0  0
 14 10  2  0  0  0  0
 14 17  1  0  0  0  0
 15 44  1  1  0  0  0
 16 15  1  0  0  0  0
 16 66  1  0  0  0  0
 17 19  2  0  0  0  0
 18 70  1  0  0  0  0
 18 15  1  0  0  0  0
 18 20  1  0  0  0  0
 19  1  1  0  0  0  0
 19 22  1  0  0  0  0
 20  4  1  0  0  0  0
 21 13  2  0  0  0  0
 21  8  1  0  0  0  0
 22  7  1  0  0  0  0
 22 23  2  0  0  0  0
 23 46  1  0  0  0  0
 24 21  1  0  0  0  0
 25 12  1  0  0  0  0
 25 72  1  0  0  0  0
 26 24  1  0  0  0  0
 26 27  1  0  0  0  0
 27 55  1  0  0  0  0
 27 74  1  0  0  0  0
 28 27  1  0  0  0  0
 28 29  1  0  0  0  0
 29 57  1  0  0  0  0
 29 76  1  0  0  0  0
 30 29  1  0  0  0  0
 30 36  1  0  0  0  0
 31 59  1  0  0  0  0
 31 78  1  0  0  0  0
 31 25  1  0  0  0  0
 32 12  1  0  0  0  0
 32  2  1  0  0  0  0
 33 38  1  0  0  0  0
 33 62  1  0  0  0  0
 33 37  1  0  0  0  0
 34 31  1  0  0  0  0
 35 80  1  0  0  0  0
 35 34  1  0  0  0  0
 36 35  1  0  0  0  0
 36 81  1  0  0  0  0
 37 84  1  0  0  0  0
 38 68  1  0  0  0  0
 39 38  1  0  0  0  0
 45 18  1  0  0  0  0
 49 10  1  0  0  0  0
 50 14  1  0  0  0  0
 51 24  1  0  0  0  0
 52 17  1  0  0  0  0
 53 25  1  0  0  0  0
 54 26  1  0  0  0  0
 56 28  1  0  0  0  0
 58 30  1  0  0  0  0
 60  8  1  0  0  0  0
 63 34  1  0  0  0  0
 64 35  1  0  0  0  0
 65 36  1  0  0  0  0
 67 37  1  0  0  0  0
 69  7  1  0  0  0  0
 71 24  1  0  0  0  0
 73 26  1  0  0  0  0
 75 28  1  0  0  0  0
 77 30  1  0  0  0  0
 79 34  1  0  0  0  0
 82 37  1  0  0  0  0
 83 38  1  0  0  0  0
M  END
>  <IC50_NM>
188

>  <number_of_rotatable_bonds>
3

>  <charge>
0

>  <lm5_entropy_jk>
30.51387600249522

$$$$
