3F1A
 OpenBabel11252210453D

 25 25  0  0  0  0  0  0  0  0999 V2000
    7.3040   24.2020    4.1820 C   0  0  0  0  0  0  0  0  0  0  0  0
    7.7840   27.0910    2.3340 N   0  0  0  0  0  0  0  0  0  0  0  0
    9.4030   26.2740    4.0530 O   0  0  0  0  0  0  0  0  0  0  0  0
    8.0470   26.8340    3.9490 S   0  0  0  0  0  0  0  0  0  0  0  0
    6.3810   23.1790    4.4300 C   0  0  0  0  0  0  0  0  0  0  0  0
    8.8430   23.9210    0.9890 N   0  0  0  0  0  0  0  0  0  0  0  0
    7.6300   28.0740    4.6030 O   0  0  0  0  0  0  0  0  0  0  0  0
    6.8680   25.5450    4.2010 C   0  0  0  0  0  0  0  0  0  0  0  0
    6.8640   24.8080    0.3100 O   0  0  0  0  0  0  0  0  0  0  0  0
    5.0390   23.4770    4.7130 C   0  0  0  0  0  0  0  0  0  0  0  0
    8.5020   22.6030    0.5020 O   0  0  0  0  0  0  0  0  0  0  0  0
    4.6130   24.8140    4.7190 C   0  0  0  0  0  0  0  0  0  0  0  0
    5.5170   25.8560    4.4660 C   0  0  0  0  0  0  0  0  0  0  0  0
    7.9850   24.9760    0.7970 C   0  0  0  0  0  0  0  0  0  0  0  0
    8.5340   26.3600    1.1900 C   0  0  0  0  0  0  0  0  0  0  0  0
    8.3480   23.9350    3.9830 H   0  0  0  0  0  0  0  0  0  0  0  0
    6.8610   26.6880    2.4900 H   0  0  0  0  0  0  0  0  0  0  0  0
    6.7120   22.1410    4.3900 H   0  0  0  0  0  0  0  0  0  0  0  0
    9.8030   24.0440    1.3260 H   0  0  0  0  0  0  0  0  0  0  0  0
    4.3270   22.6770    4.9110 H   0  0  0  0  0  0  0  0  0  0  0  0
    8.5340   22.0040    1.3090 H   0  0  0  0  0  0  0  0  0  0  0  0
    3.5660   25.0400    4.9190 H   0  0  0  0  0  0  0  0  0  0  0  0
    5.1540   26.8870    4.4880 H   0  0  0  0  0  0  0  0  0  0  0  0
    8.4950   26.9410    0.2540 H   0  0  0  0  0  0  0  0  0  0  0  0
    9.6100   26.2540    1.4120 H   0  0  0  0  0  0  0  0  0  0  0  0
  1  8  2  0  0  0  0
  1  5  1  0  0  0  0
  1 16  1  0  0  0  0
  2 15  1  0  0  0  0
  2  4  1  0  0  0  0
  2 17  1  0  0  0  0
  3  4  2  0  0  0  0
  4  8  1  0  0  0  0
  4  7  2  0  0  0  0
  5 10  2  0  0  0  0
  5 18  1  0  0  0  0
  6 11  1  0  0  0  0
  6 14  1  0  0  0  0
  6 19  1  0  0  0  0
  8 13  1  0  0  0  0
  9 14  2  0  0  0  0
 10 12  1  0  0  0  0
 10 20  1  0  0  0  0
 11 21  1  0  0  0  0
 12 13  2  0  0  0  0
 12 22  1  0  0  0  0
 13 23  1  0  0  0  0
 14 15  1  0  0  0  0
 15 24  1  0  0  0  0
 15 25  1  0  0  0  0
M  END
>  <lm5_entropy_jk>
20.21647283461167

>  <number_of_rotatable_bonds>
5

>  <deltaG_kcalmol>
-9.85

>  <charge>
0

$$$$
