3F1A
 OpenBabel11252210453D

 25 25  0  0  0  0  0  0  0  0999 V2000
    7.4130   23.8720    4.2240 C   0  0  0  0  0  0  0  0  0  0  0  0
    7.5890   26.9870    2.4630 N   0  0  0  0  0  0  0  0  0  0  0  0
    9.3120   26.1260    4.0960 O   0  0  0  0  0  0  0  0  0  0  0  0
    7.9110   26.5690    4.0350 S   0  0  0  0  0  0  0  0  0  0  0  0
    6.5940   22.7760    4.5230 C   0  0  0  0  0  0  0  0  0  0  0  0
    8.8960   24.1270    0.6530 N   0  0  0  0  0  0  0  0  0  0  0  0
    7.4000   27.6880    4.8230 O   0  0  0  0  0  0  0  0  0  0  0  0
    6.8530   25.1680    4.2200 C   0  0  0  0  0  0  0  0  0  0  0  0
    6.7440   24.7800    0.3120 O   0  0  0  0  0  0  0  0  0  0  0  0
    5.2330   22.9540    4.8100 C   0  0  0  0  0  0  0  0  0  0  0  0
    8.6710   22.8600    0.0090 O   0  0  0  0  0  0  0  0  0  0  0  0
    4.6730   24.2360    4.7450 C   0  0  0  0  0  0  0  0  0  0  0  0
    5.4740   25.3460    4.4540 C   0  0  0  0  0  0  0  0  0  0  0  0
    7.8860   25.0540    0.7020 C   0  0  0  0  0  0  0  0  0  0  0  0
    8.3120   26.4470    1.2080 C   0  0  0  0  0  0  0  0  0  0  0  0
    8.4730   23.6980    4.0130 H   0  0  0  0  0  0  0  0  0  0  0  0
    6.6540   26.6010    2.5550 H   0  0  0  0  0  0  0  0  0  0  0  0
    7.0240   21.7750    4.5200 H   0  0  0  0  0  0  0  0  0  0  0  0
    9.8490   24.3180    0.9680 H   0  0  0  0  0  0  0  0  0  0  0  0
    4.6040   22.1040    5.0650 H   0  0  0  0  0  0  0  0  0  0  0  0
    8.6760   22.1940    0.7600 H   0  0  0  0  0  0  0  0  0  0  0  0
    3.6060   24.3640    4.9290 H   0  0  0  0  0  0  0  0  0  0  0  0
    5.0130   26.3320    4.4290 H   0  0  0  0  0  0  0  0  0  0  0  0
    8.1480   27.1080    0.3410 H   0  0  0  0  0  0  0  0  0  0  0  0
    9.4070   26.4420    1.3440 H   0  0  0  0  0  0  0  0  0  0  0  0
  1  8  2  0  0  0  0
  1  5  1  0  0  0  0
  1 16  1  0  0  0  0
  2 15  1  0  0  0  0
  2  4  1  0  0  0  0
  2 17  1  0  0  0  0
  3  4  2  0  0  0  0
  4  8  1  0  0  0  0
  4  7  2  0  0  0  0
  5 10  2  0  0  0  0
  5 18  1  0  0  0  0
  6 11  1  0  0  0  0
  6 14  1  0  0  0  0
  6 19  1  0  0  0  0
  8 13  1  0  0  0  0
  9 14  2  0  0  0  0
 10 12  1  0  0  0  0
 10 20  1  0  0  0  0
 11 21  1  0  0  0  0
 12 13  2  0  0  0  0
 12 22  1  0  0  0  0
 13 23  1  0  0  0  0
 14 15  1  0  0  0  0
 15 24  1  0  0  0  0
 15 25  1  0  0  0  0
M  END
>  <lm5_entropy_jk>
20.21647283461167

>  <number_of_rotatable_bonds>
5

>  <deltaG_kcalmol>
-9.85

>  <charge>
0

$$$$
