1zoe_B
 OpenBabel11252210453D

 23 24  0  0  1  0  0  0  0  0999 V2000
   21.5550    8.9400   18.9980 C   0  0  0  0  0  0  0  0  0  0  0  0
   21.3150    8.4820   20.3210 C   0  0  0  0  0  0  0  0  0  0  0  0
   21.9440    7.3410   20.8060 C   0  0  0  0  0  0  0  0  0  0  0  0
   22.4610    8.2890   18.1640 C   0  0  0  0  0  0  0  0  0  0  0  0
   23.5200    5.4540   20.1180 N   0  0  0  0  0  0  0  0  0  0  0  0
   23.0890    7.1220   18.6270 C   0  0  0  0  0  0  0  0  0  0  0  0
   22.7910    6.6400   19.9490 C   0  0  0  0  0  0  0  0  0  0  0  0
   24.1880    5.2240   18.8660 C   0  0  0  0  0  0  0  0  0  0  0  0
   23.9830    6.2610   17.9880 N   0  0  0  0  0  0  0  0  0  0  0  0
   24.8070    3.9980   18.5680 N   0  0  0  0  0  0  0  0  0  0  0  0
   25.3200    3.2210   19.7330 C   0  0  0  0  0  0  0  0  0  0  0  0
   25.7420    3.9930   17.4070 C   0  0  0  0  0  0  0  0  0  0  0  0
   20.6570   10.4900   18.3600 Br  0  0  0  0  0  0  0  0  0  0  0  0
   21.7820    6.6130   22.5440 Br  0  0  0  0  0  0  0  0  0  0  0  0
   22.9510    8.8440   16.4300 Br  0  0  0  0  0  0  0  0  0  0  0  0
   20.1230    9.4050   21.4720 Br  0  0  0  0  0  0  0  0  0  0  0  0
   23.4140    4.7990   20.8950 H   0  0  0  0  0  0  0  0  0  0  0  0
   25.3150    4.6040   16.5710 H   0  0  0  0  0  0  0  0  0  0  0  0
   25.8740    2.3190   19.3540 H   0  0  0  0  0  0  0  0  0  0  0  0
   25.8230    2.9260   17.0580 H   0  0  0  0  0  0  0  0  0  0  0  0
   24.4480    2.8320   20.3250 H   0  0  0  0  0  0  0  0  0  0  0  0
   26.7610    4.3680   17.6690 H   0  0  0  0  0  0  0  0  0  0  0  0
   26.0040    3.8030   20.3960 H   0  0  0  0  0  0  0  0  0  0  0  0
  1  2  2  0  0  0  0
  1  4  1  0  0  0  0
  1 13  1  0  0  0  0
  2  3  1  0  0  0  0
  2 16  1  0  0  0  0
  3  7  2  0  0  0  0
  3 14  1  0  0  0  0
  4  6  2  0  0  0  0
  4 15  1  0  0  0  0
  5  7  1  0  0  0  0
  5  8  1  0  0  0  0
  5 17  1  0  0  0  0
  6  7  1  0  0  0  0
  6  9  1  0  0  0  0
  8  9  2  0  0  0  0
  8 10  1  0  0  0  0
 10 11  1  0  0  0  0
 10 12  1  0  0  0  0
 11 19  1  0  0  0  0
 11 21  1  0  0  0  0
 11 23  1  0  0  0  0
 12 18  1  0  0  0  0
 12 20  1  0  0  0  0
 12 22  1  0  0  0  0
M  END
>  <charge>
0

>  <Ki_NM>
45

>  <number_of_rotatable_bonds>
1

>  <lm5_entropy_jk>
28.431029787763457

$$$$
