4E5W
 OpenBabel11252210453D

 57 61  0  0  1  0  0  0  0  0999 V2000
  -17.9310   36.7230   -5.2610 C   0  0  0  0  0  0  0  0  0  0  0  0
  -18.5730   36.2620   -3.9500 C   0  0  0  0  0  0  0  0  0  0  0  0
  -19.7250   37.2470   -3.6990 C   0  0  0  0  0  0  0  0  0  0  0  0
  -17.6320   36.2460   -2.7630 N   0  3  2  0  0  0  0  0  0  0  0  0
  -16.7390   37.4910   -2.7080 C   0  0  0  0  0  0  0  0  0  0  0  0
  -15.2760   37.0390   -2.6190 C   0  0  0  0  0  0  0  0  0  0  0  0
  -15.4310   35.6640   -1.9510 C   0  0  0  0  0  0  0  0  0  0  0  0
  -16.6350   35.0900   -2.7240 C   0  0  1  0  0  0  0  0  0  0  0  0
  -17.2520   33.8610   -2.0540 C   0  0  0  0  0  0  0  0  0  0  0  0
  -18.2930   34.0080   -1.4320 O   0  0  0  0  0  0  0  0  0  0  0  0
  -16.6250   32.6050   -2.2270 N   0  0  0  0  0  0  0  0  0  0  0  0
  -17.3550   31.3720   -1.9020 C   0  0  0  0  0  0  0  0  0  0  0  0
  -16.5300   30.5500   -0.8880 C   0  0  0  0  0  0  0  0  0  0  0  0
  -15.2500   30.0530   -1.5470 C   0  0  1  0  0  0  0  0  0  0  0  0
  -14.4480   31.3250   -1.9370 C   0  0  0  0  0  0  0  0  0  0  0  0
  -15.2860   32.3270   -2.8170 C   0  0  0  0  0  0  0  0  0  0  0  0
  -14.5430   29.1000   -0.6700 N   0  0  0  0  0  0  0  0  0  0  0  0
  -13.3090   29.2280    0.0080 C   0  0  0  0  0  0  0  0  0  0  0  0
  -12.9110   28.0860    0.6160 N   0  0  0  0  0  0  0  0  0  0  0  0
  -13.9300   27.2340    0.3620 C   0  0  0  0  0  0  0  0  0  0  0  0
  -14.9110   27.8090   -0.3770 C   0  0  0  0  0  0  0  0  0  0  0  0
  -16.0360   27.0500   -0.7350 C   0  0  0  0  0  0  0  0  0  0  0  0
  -17.2040   27.3320   -1.5400 C   0  0  0  0  0  0  0  0  0  0  0  0
  -17.9720   26.1780   -1.5390 C   0  0  0  0  0  0  0  0  0  0  0  0
  -17.2910   25.2130   -0.7740 N   0  0  0  0  0  0  0  0  0  0  0  0
  -16.1120   25.7430   -0.3020 C   0  0  0  0  0  0  0  0  0  0  0  0
  -15.1440   25.1390    0.4310 N   0  0  0  0  0  0  0  0  0  0  0  0
  -14.0490   25.8840    0.7600 C   0  0  0  0  0  0  0  0  0  0  0  0
  -16.3860   34.8190   -3.7520 H   0  0  0  0  0  0  0  0  0  0  0  0
  -17.6270   24.2710   -0.5850 H   0  0  0  0  0  0  0  0  0  0  0  0
  -18.9220   35.2220   -4.0740 H   0  0  0  0  0  0  0  0  0  0  0  0
  -18.2010   36.1380   -1.9000 H   0  0  0  0  0  0  0  0  0  0  0  0
  -16.9210   38.1230   -3.5850 H   0  0  0  0  0  0  0  0  0  0  0  0
  -17.0070   38.0570   -1.8170 H   0  0  0  0  0  0  0  0  0  0  0  0
  -14.6270   37.7460   -2.0760 H   0  0  0  0  0  0  0  0  0  0  0  0
  -14.8520   36.9520   -3.6320 H   0  0  0  0  0  0  0  0  0  0  0  0
  -14.5220   35.0600   -1.9480 H   0  0  0  0  0  0  0  0  0  0  0  0
  -15.7090   35.7630   -0.8930 H   0  0  0  0  0  0  0  0  0  0  0  0
  -18.3620   31.6380   -1.5530 H   0  0  0  0  0  0  0  0  0  0  0  0
  -17.5410   30.7840   -2.8100 H   0  0  0  0  0  0  0  0  0  0  0  0
  -16.2710   31.1680   -0.0190 H   0  0  0  0  0  0  0  0  0  0  0  0
  -17.0970   29.6980   -0.5050 H   0  0  0  0  0  0  0  0  0  0  0  0
  -15.5140   29.5020   -2.4660 H   0  0  0  0  0  0  0  0  0  0  0  0
  -14.1440   31.8400   -1.0160 H   0  0  0  0  0  0  0  0  0  0  0  0
  -13.5340   31.0200   -2.4630 H   0  0  0  0  0  0  0  0  0  0  0  0
  -15.4230   31.9100   -3.8250 H   0  0  0  0  0  0  0  0  0  0  0  0
  -14.7360   33.2570   -2.9610 H   0  0  0  0  0  0  0  0  0  0  0  0
  -12.7570   30.1630    0.0180 H   0  0  0  0  0  0  0  0  0  0  0  0
  -17.4500   28.2180   -2.1130 H   0  0  0  0  0  0  0  0  0  0  0  0
  -18.9140   25.9660   -2.0360 H   0  0  0  0  0  0  0  0  0  0  0  0
  -13.2670   25.3960    1.3460 H   0  0  0  0  0  0  0  0  0  0  0  0
  -20.3670   36.9710   -2.8510 H   0  0  0  0  0  0  0  0  0  0  0  0
  -19.3310   38.2470   -3.4620 H   0  0  0  0  0  0  0  0  0  0  0  0
  -20.3570   37.4140   -4.5820 H   0  0  0  0  0  0  0  0  0  0  0  0
  -16.9490   36.2550   -5.4030 H   0  0  0  0  0  0  0  0  0  0  0  0
  -18.5250   36.4090   -6.1280 H   0  0  0  0  0  0  0  0  0  0  0  0
  -17.7950   37.8100   -5.3430 H   0  0  0  0  0  0  0  0  0  0  0  0
  1  2  1  0  0  0  0
  2  3  1  0  0  0  0
  2  4  1  0  0  0  0
  4  8  1  0  0  0  0
  4 32  1  1  0  0  0
  5  6  1  0  0  0  0
  5  4  1  0  0  0  0
  6  7  1  0  0  0  0
  7  8  1  0  0  0  0
  8 29  1  6  0  0  0
  9  8  1  0  0  0  0
  9 11  1  0  0  0  0
  9 10  2  0  0  0  0
 12 13  1  0  0  0  0
 12 11  1  0  0  0  0
 13 14  1  0  0  0  0
 14 15  1  0  0  0  0
 14 17  1  0  0  0  0
 14 43  1  6  0  0  0
 15 16  1  0  0  0  0
 16 11  1  0  0  0  0
 18 17  1  0  0  0  0
 18 19  2  0  0  0  0
 20 21  2  0  0  0  0
 20 28  1  0  0  0  0
 20 19  1  0  0  0  0
 21 22  1  0  0  0  0
 21 17  1  0  0  0  0
 22 23  1  0  0  0  0
 22 26  2  0  0  0  0
 23 24  2  0  0  0  0
 24 25  1  0  0  0  0
 26 25  1  0  0  0  0
 26 27  1  0  0  0  0
 28 27  2  0  0  0  0
 30 25  1  0  0  0  0
 31  2  1  0  0  0  0
 33  5  1  0  0  0  0
 34  5  1  0  0  0  0
 35  6  1  0  0  0  0
 36  6  1  0  0  0  0
 37  7  1  0  0  0  0
 38  7  1  0  0  0  0
 39 12  1  0  0  0  0
 40 12  1  0  0  0  0
 41 13  1  0  0  0  0
 42 13  1  0  0  0  0
 44 15  1  0  0  0  0
 45 15  1  0  0  0  0
 46 16  1  0  0  0  0
 47 16  1  0  0  0  0
 48 18  1  0  0  0  0
 49 23  1  0  0  0  0
 50 24  1  0  0  0  0
 51 28  1  0  0  0  0
 52  3  1  0  0  0  0
 53  3  1  0  0  0  0
 54  3  1  0  0  0  0
 55  1  1  0  0  0  0
 56  1  1  0  0  0  0
 57  1  1  0  0  0  0
M  CHG  1   4   1
M  END
>  <charge>
1

>  <pKi>
7.66

>  <number_of_rotatable_bonds>
3

>  <lm5_entropy_jk>
35.45414597483307

$$$$
