3LJJ
 OpenBabel11252210453D

 58 60  0  0  1  0  0  0  0  0999 V2000
    2.3620   20.9850   18.5320 N   0  0  0  0  0  0  0  0  0  0  0  0
    1.2090   22.9390   15.4570 N   0  3  0  0  0  0  0  0  0  0  0  0
    0.7200   17.7300   19.4480 N   0  0  0  0  0  0  0  0  0  0  0  0
   -1.6730   12.4520   14.9400 N   0  3  0  0  0  0  0  0  0  0  0  0
   -2.6860   14.3490   14.0120 N   0  0  0  0  0  0  0  0  0  0  0  0
    2.2760   19.6280   19.1210 C   0  0  1  0  0  0  0  0  0  0  0  0
    2.8820   19.7300   20.5510 C   0  0  0  0  0  0  0  0  0  0  0  0
    3.4520   21.1680   20.6770 C   0  0  0  0  0  0  0  0  0  0  0  0
    2.8090   21.9760   19.5330 C   0  0  0  0  0  0  0  0  0  0  0  0
    0.8280   19.0640   19.1060 C   0  0  0  0  0  0  0  0  0  0  0  0
    2.0610   21.2320   17.1980 C   0  0  0  0  0  0  0  0  0  0  0  0
    1.9800   22.6850   16.7950 C   0  0  0  0  0  0  0  0  0  0  0  0
    2.0250   22.4580   14.2680 C   0  0  0  0  0  0  0  0  0  0  0  0
    3.3580   23.1930   14.0540 C   0  0  0  0  0  0  0  0  0  0  0  0
    3.7110   23.0390   12.5540 C   0  0  0  0  0  0  0  0  0  0  0  0
    2.4340   22.5160   11.8600 C   0  0  0  0  0  0  0  0  0  0  0  0
    1.3170   22.6230   12.9190 C   0  0  0  0  0  0  0  0  0  0  0  0
   -0.5880   17.0440   19.6480 C   0  0  0  0  0  0  0  0  0  0  0  0
   -0.9660   16.1620   18.4820 C   0  0  0  0  0  0  0  0  0  0  0  0
   -1.4000   16.7580   17.3010 C   0  0  0  0  0  0  0  0  0  0  0  0
   -1.7730   15.9750   16.2050 C   0  0  0  0  0  0  0  0  0  0  0  0
   -1.7080   14.5610   16.2650 C   0  0  0  0  0  0  0  0  0  0  0  0
   -1.2730   13.9640   17.4740 C   0  0  0  0  0  0  0  0  0  0  0  0
   -0.9010   14.7660   18.5700 C   0  0  0  0  0  0  0  0  0  0  0  0
   -2.1070   13.7390   15.0830 C   0  0  0  0  0  0  0  0  0  0  0  0
   -0.1630   19.7400   18.8730 O   0  0  0  0  0  0  0  0  0  0  0  0
    1.8490   20.3350   16.4040 O   0  0  0  0  0  0  0  0  0  0  0  0
    2.8610   18.9410   18.4960 H   0  0  0  0  0  0  0  0  0  0  0  0
    3.6500   18.9620   20.7210 H   0  0  0  0  0  0  0  0  0  0  0  0
    2.0950   19.5700   21.3070 H   0  0  0  0  0  0  0  0  0  0  0  0
    3.2440   21.6220   21.6610 H   0  0  0  0  0  0  0  0  0  0  0  0
    4.5440   21.1740   20.5590 H   0  0  0  0  0  0  0  0  0  0  0  0
    1.9390   22.5410   19.9080 H   0  0  0  0  0  0  0  0  0  0  0  0
    3.5260   22.6950   19.1040 H   0  0  0  0  0  0  0  0  0  0  0  0
    1.4760   23.1930   17.6190 H   0  0  0  0  0  0  0  0  0  0  0  0
    3.0020   23.0560   16.7150 H   0  0  0  0  0  0  0  0  0  0  0  0
    0.2920   22.4560   15.4580 H   0  0  0  0  0  0  0  0  0  0  0  0
    0.9730   23.9380   15.3230 H   0  0  0  0  0  0  0  0  0  0  0  0
    2.2330   21.3890   14.4250 H   0  0  0  0  0  0  0  0  0  0  0  0
    3.2550   24.2600   14.3070 H   0  0  0  0  0  0  0  0  0  0  0  0
    4.1510   22.7850   14.7000 H   0  0  0  0  0  0  0  0  0  0  0  0
    4.0350   24.0010   12.1240 H   0  0  0  0  0  0  0  0  0  0  0  0
    4.5480   22.3370   12.4150 H   0  0  0  0  0  0  0  0  0  0  0  0
    2.5720   21.4670   11.5530 H   0  0  0  0  0  0  0  0  0  0  0  0
    2.1950   23.0870   10.9470 H   0  0  0  0  0  0  0  0  0  0  0  0
    0.5280   21.8690   12.7660 H   0  0  0  0  0  0  0  0  0  0  0  0
    0.8370   23.6120   12.8510 H   0  0  0  0  0  0  0  0  0  0  0  0
    1.5790   17.2130   19.6140 H   0  0  0  0  0  0  0  0  0  0  0  0
   -0.5660   16.4460   20.5650 H   0  0  0  0  0  0  0  0  0  0  0  0
   -1.3870   17.7870   19.7950 H   0  0  0  0  0  0  0  0  0  0  0  0
   -1.4460   17.8450   17.2350 H   0  0  0  0  0  0  0  0  0  0  0  0
   -2.0980   16.5000   15.3120 H   0  0  0  0  0  0  0  0  0  0  0  0
   -1.2270   12.8820   17.5830 H   0  0  0  0  0  0  0  0  0  0  0  0
   -0.5650   14.3080   19.5020 H   0  0  0  0  0  0  0  0  0  0  0  0
   -2.1760   11.8580   14.2810 H   0  0  0  0  0  0  0  0  0  0  0  0
   -1.2150   11.9830   15.7200 H   0  0  0  0  0  0  0  0  0  0  0  0
   -3.1130   13.7160   13.3330 H   0  0  0  0  0  0  0  0  0  0  0  0
   -3.1740   15.2270   14.1630 H   0  0  0  0  0  0  0  0  0  0  0  0
  1  6  1  0  0  0  0
  1  9  1  0  0  0  0
  1 11  1  0  0  0  0
  2 12  1  0  0  0  0
  2 13  1  0  0  0  0
  2 37  1  0  0  0  0
  2 38  1  0  0  0  0
  3 10  1  0  0  0  0
  3 18  1  0  0  0  0
  3 48  1  0  0  0  0
  4 25  2  0  0  0  0
  4 55  1  0  0  0  0
  4 56  1  0  0  0  0
  5 25  1  0  0  0  0
  5 57  1  0  0  0  0
  5 58  1  0  0  0  0
  6  7  1  0  0  0  0
  6 10  1  0  0  0  0
  6 28  1  6  0  0  0
  7  8  1  0  0  0  0
  7 29  1  0  0  0  0
  7 30  1  0  0  0  0
  8  9  1  0  0  0  0
  8 31  1  0  0  0  0
  8 32  1  0  0  0  0
  9 33  1  0  0  0  0
  9 34  1  0  0  0  0
 10 26  2  0  0  0  0
 11 12  1  0  0  0  0
 11 27  2  0  0  0  0
 12 35  1  0  0  0  0
 12 36  1  0  0  0  0
 13 14  1  0  0  0  0
 13 17  1  0  0  0  0
 13 39  1  0  0  0  0
 14 15  1  0  0  0  0
 14 40  1  0  0  0  0
 14 41  1  0  0  0  0
 15 16  1  0  0  0  0
 15 42  1  0  0  0  0
 15 43  1  0  0  0  0
 16 17  1  0  0  0  0
 16 44  1  0  0  0  0
 16 45  1  0  0  0  0
 17 46  1  0  0  0  0
 17 47  1  0  0  0  0
 18 19  1  0  0  0  0
 18 49  1  0  0  0  0
 18 50  1  0  0  0  0
 19 20  2  0  0  0  0
 19 24  1  0  0  0  0
 20 21  1  0  0  0  0
 20 51  1  0  0  0  0
 21 22  2  0  0  0  0
 21 52  1  0  0  0  0
 22 23  1  0  0  0  0
 22 25  1  0  0  0  0
 23 24  2  0  0  0  0
 23 53  1  0  0  0  0
 24 54  1  0  0  0  0
M  CHG  2   2   1   4   1
M  END
>  <number_of_rotatable_bonds>
9

>  <lm5_entropy_jk>
23.942377463858183

>  <deltaG_kcalmol>
-8.91

>  <charge>
2

$$$$
