4LB3
 OpenBabel11252210453D

 35 36  0  0  0  0  0  0  0  0999 V2000
   14.1350  -12.0970   18.8280 Cl  0  0  0  0  0  0  0  0  0  0  0  0
   17.8540   -6.0950   13.2310 C   0  0  0  0  0  0  0  0  0  0  0  0
   18.5150   -5.0800   12.5100 C   0  0  0  0  0  0  0  0  0  0  0  0
   16.5340   -6.3780   12.8580 C   0  0  0  0  0  0  0  0  0  0  0  0
   17.9240   -4.3490   11.4780 C   0  0  0  0  0  0  0  0  0  0  0  0
   15.9020   -5.6640   11.8290 C   0  0  0  0  0  0  0  0  0  0  0  0
   16.6010   -4.6570   11.1740 C   0  0  0  0  0  0  0  0  0  0  0  0
   18.5720   -6.8130   14.3540 C   0  0  0  0  0  0  0  0  0  0  0  0
   17.6740   -7.6350   15.1840 N   0  0  0  0  0  0  0  0  0  0  0  0
   17.7040   -9.0230   15.1080 C   0  0  0  0  0  0  0  0  0  0  0  0
   16.8800   -9.7780   16.0960 C   0  0  0  0  0  0  0  0  0  0  0  0
   16.4380   -9.2150   17.3280 C   0  0  0  0  0  0  0  0  0  0  0  0
   16.5410  -11.1060   15.8070 C   0  0  0  0  0  0  0  0  0  0  0  0
   15.5510   -9.9220   18.1620 C   0  0  0  0  0  0  0  0  0  0  0  0
   15.7230  -11.8490   16.6630 C   0  0  0  0  0  0  0  0  0  0  0  0
   15.2270  -11.2210   17.8030 C   0  0  0  0  0  0  0  0  0  0  0  0
   18.3640   -9.6050   14.2470 O   0  0  0  0  0  0  0  0  0  0  0  0
   16.9880   -8.0170   17.5950 O   0  0  0  0  0  0  0  0  0  0  0  0
   16.6450   -7.2230   18.7700 C   0  0  0  0  0  0  0  0  0  0  0  0
   15.6670   -6.0740   18.3140 C   0  0  0  0  0  0  0  0  0  0  0  0
   15.1200   -5.4770   19.2600 O   0  0  0  0  0  0  0  0  0  0  0  0
   15.5200   -5.8860   17.0970 O   0  5  0  0  0  0  0  0  0  0  0  0
   19.7760   -4.7820   12.8280 F   0  0  0  0  0  0  0  0  0  0  0  0
   15.5700   -3.4730    9.7480 I   0  0  0  0  0  0  0  0  0  0  0  0
   17.6530   -6.8420   19.0450 H   0  0  0  0  0  0  0  0  0  0  0  0
   15.9630   -7.1550   13.3750 H   0  0  0  0  0  0  0  0  0  0  0  0
   18.4550   -3.5460   10.9590 H   0  0  0  0  0  0  0  0  0  0  0  0
   14.8620   -5.8870   11.5690 H   0  0  0  0  0  0  0  0  0  0  0  0
   19.0620   -6.0540   15.0290 H   0  0  0  0  0  0  0  0  0  0  0  0
   17.1190   -7.1210   15.8940 H   0  0  0  0  0  0  0  0  0  0  0  0
   16.9020  -11.5830   14.8870 H   0  0  0  0  0  0  0  0  0  0  0  0
   15.1480   -9.4890   19.0740 H   0  0  0  0  0  0  0  0  0  0  0  0
   15.4740  -12.8860   16.4310 H   0  0  0  0  0  0  0  0  0  0  0  0
   16.2330   -7.8480   19.5750 H   0  0  0  0  0  0  0  0  0  0  0  0
   19.3770   -7.4730   13.9180 H   0  0  0  0  0  0  0  0  0  0  0  0
  1 16  1  0  0  0  0
  2  3  2  0  0  0  0
  2  4  1  0  0  0  0
  2  8  1  0  0  0  0
  3  5  1  0  0  0  0
  3 23  1  0  0  0  0
  4  6  2  0  0  0  0
  4 26  1  0  0  0  0
  5  7  2  0  0  0  0
  5 27  1  0  0  0  0
  6  7  1  0  0  0  0
  6 28  1  0  0  0  0
  7 24  1  0  0  0  0
  8  9  1  0  0  0  0
  8 29  1  0  0  0  0
  8 35  1  0  0  0  0
  9 10  1  0  0  0  0
  9 30  1  0  0  0  0
 10 11  1  0  0  0  0
 10 17  2  0  0  0  0
 11 12  2  0  0  0  0
 11 13  1  0  0  0  0
 12 14  1  0  0  0  0
 12 18  1  0  0  0  0
 13 15  2  0  0  0  0
 13 31  1  0  0  0  0
 14 16  2  0  0  0  0
 14 32  1  0  0  0  0
 15 16  1  0  0  0  0
 15 33  1  0  0  0  0
 18 19  1  0  0  0  0
 19 20  1  0  0  0  0
 19 25  1  0  0  0  0
 19 34  1  0  0  0  0
 20 21  2  0  0  0  0
 20 22  1  0  0  0  0
M  CHG  1  22  -1
M  END
>  <deltaG_kcalmol>
-10.73

>  <charge>
-1

>  <lm5_entropy_jk>
25.63780735381752

>  <number_of_rotatable_bonds>
7

$$$$
