3RPY
 OpenBabel11252210453D

 31 32  0  0  0  0  0  0  0  0999 V2000
   68.8050  151.9130  -49.9930 C   0  0  0  0  0  0  0  0  0  0  0  0
   66.0150  154.2620  -50.4490 N   0  0  0  0  0  0  0  0  0  0  0  0
   60.2570  153.2890  -44.1620 O   0  0  0  0  0  0  0  0  0  0  0  0
   66.8210  153.0110  -48.2920 S   0  0  0  0  0  0  0  0  0  0  0  0
   67.4530  153.4340  -52.0550 N   0  0  0  0  0  0  0  0  0  0  0  0
   60.9540  155.5410  -43.1560 O   0  0  0  0  0  0  0  0  0  0  0  0
   61.2470  154.3140  -43.8800 S   0  0  0  0  0  0  0  0  0  0  0  0
   64.6790  154.7290  -48.6310 N   0  0  0  0  0  0  0  0  0  0  0  0
   62.0420  153.5530  -42.8020 N   0  0  0  0  0  0  0  0  0  0  0  0
   67.6720  152.7730  -49.7870 C   0  0  0  0  0  0  0  0  0  0  0  0
   67.0830  153.4750  -50.7830 C   0  0  0  0  0  0  0  0  0  0  0  0
   65.7450  154.0860  -49.1720 C   0  0  0  0  0  0  0  0  0  0  0  0
   63.9810  154.6260  -47.4530 C   0  0  0  0  0  0  0  0  0  0  0  0
   63.8940  153.4270  -46.7450 C   0  0  0  0  0  0  0  0  0  0  0  0
   63.0910  153.3250  -45.6060 C   0  0  0  0  0  0  0  0  0  0  0  0
   62.3840  154.4610  -45.1840 C   0  0  0  0  0  0  0  0  0  0  0  0
   62.4650  155.6800  -45.8690 C   0  0  0  0  0  0  0  0  0  0  0  0
   63.2610  155.7330  -47.0120 C   0  0  0  0  0  0  0  0  0  0  0  0
   69.3880  151.7670  -51.0410 O   0  0  0  0  0  0  0  0  0  0  0  0
   69.1610  151.2610  -48.8880 N   0  0  0  0  0  0  0  0  0  0  0  0
   67.1370  154.1580  -52.6900 H   0  0  0  0  0  0  0  0  0  0  0  0
   68.3210  152.9360  -52.2150 H   0  0  0  0  0  0  0  0  0  0  0  0
   64.1990  155.3130  -49.3060 H   0  0  0  0  0  0  0  0  0  0  0  0
   61.2690  152.9040  -42.9500 H   0  0  0  0  0  0  0  0  0  0  0  0
   61.6370  154.3190  -42.2650 H   0  0  0  0  0  0  0  0  0  0  0  0
   64.4110  152.5450  -47.1000 H   0  0  0  0  0  0  0  0  0  0  0  0
   63.0180  152.3650  -45.0840 H   0  0  0  0  0  0  0  0  0  0  0  0
   61.8940  156.5670  -45.5670 H   0  0  0  0  0  0  0  0  0  0  0  0
   63.2920  156.6500  -47.5890 H   0  0  0  0  0  0  0  0  0  0  0  0
   69.9210  150.6040  -48.9420 H   0  0  0  0  0  0  0  0  0  0  0  0
   68.6120  151.4080  -48.0560 H   0  0  0  0  0  0  0  0  0  0  0  0
  1 10  1  0  0  0  0
  1 20  1  0  0  0  0
  2 12  2  0  0  0  0
  3  7  2  0  0  0  0
  5 11  1  0  0  0  0
  5 21  1  0  0  0  0
  5 22  1  0  0  0  0
  7  6  2  0  0  0  0
  7  9  1  0  0  0  0
  8 13  1  0  0  0  0
  8 23  1  0  0  0  0
  9 24  1  0  0  0  0
  9 25  1  0  0  0  0
 10  4  1  0  0  0  0
 11  2  1  0  0  0  0
 11 10  2  0  0  0  0
 12  8  1  0  0  0  0
 12  4  1  0  0  0  0
 13 18  2  0  0  0  0
 13 14  1  0  0  0  0
 14 15  2  0  0  0  0
 14 26  1  0  0  0  0
 15 16  1  0  0  0  0
 15 27  1  0  0  0  0
 16  7  1  0  0  0  0
 17 16  2  0  0  0  0
 17 28  1  0  0  0  0
 18 17  1  0  0  0  0
 18 29  1  0  0  0  0
 19  1  2  0  0  0  0
 20 30  1  0  0  0  0
 20 31  1  0  0  0  0
M  END
>  <lm5_entropy_jk>
19.643205717801273

>  <number_of_rotatable_bonds>
4

>  <IC50_NM>
4800

>  <charge>
0

$$$$
