5NXG
 OpenBabel11252210453D

 32 33  0  0  0  0  0  0  0  0999 V2000
   -5.4240    0.9570   15.9470 N   0  5  0  0  0  0  0  0  0  0  0  0
   -4.9820    3.7470   15.5940 C   0  0  0  0  0  0  0  0  0  0  0  0
   -4.9170    2.6210   17.9260 O   0  0  0  0  0  0  0  0  0  0  0  0
   -5.7770    4.8620   15.3230 C   0  0  0  0  0  0  0  0  0  0  0  0
   -3.5230    6.7530   12.9910 N   0  0  0  0  0  0  0  0  0  0  0  0
   -7.0720    2.6220   16.5660 O   0  0  0  0  0  0  0  0  0  0  0  0
   -5.3370    5.8670   14.4520 C   0  0  0  0  0  0  0  0  0  0  0  0
   -0.8440   11.6760    9.7810 N   0  3  0  0  0  0  0  0  0  0  0  0
   -5.4540    7.6730   12.1250 O   0  0  0  0  0  0  0  0  0  0  0  0
   -4.0680    5.7490   13.8700 C   0  0  0  0  0  0  0  0  0  0  0  0
   -0.7110   12.7580   10.3370 O   0  5  0  0  0  0  0  0  0  0  0  0
   -4.2440    7.6910   12.2560 C   0  0  0  0  0  0  0  0  0  0  0  0
   -0.2930   11.3850    8.7280 O   0  0  0  0  0  0  0  0  0  0  0  0
   -3.3520    8.7370   11.6180 C   0  0  0  0  0  0  0  0  0  0  0  0
   -3.3790    8.9170   10.2320 C   0  0  0  0  0  0  0  0  0  0  0  0
   -2.5620    9.8780    9.6240 C   0  0  0  0  0  0  0  0  0  0  0  0
   -1.7190   10.6600   10.4210 C   0  0  0  0  0  0  0  0  0  0  0  0
   -1.6750   10.5050   11.8130 C   0  0  0  0  0  0  0  0  0  0  0  0
   -2.4970    9.5360   12.3950 C   0  0  0  0  0  0  0  0  0  0  0  0
   -3.2430    4.6520   14.1670 C   0  0  0  0  0  0  0  0  0  0  0  0
   -3.7090    3.6600   15.0320 C   0  0  0  0  0  0  0  0  0  0  0  0
   -2.4370    9.3410   14.0970 Cl  0  0  0  0  0  0  0  0  0  0  0  0
   -5.6100    2.4520   16.6440 S   0  0  0  0  0  0  0  0  0  0  0  0
   -2.4900    6.7790   12.9250 H   0  0  0  0  0  0  0  0  0  0  0  0
   -6.7590    4.9910   15.7970 H   0  0  0  0  0  0  0  0  0  0  0  0
   -5.9610    6.7370   14.2480 H   0  0  0  0  0  0  0  0  0  0  0  0
   -4.4840    0.5550   16.3060 H   0  0  0  0  0  0  0  0  0  0  0  0
   -4.0320    8.3030    9.5990 H   0  0  0  0  0  0  0  0  0  0  0  0
   -2.5890   10.0030    8.5360 H   0  0  0  0  0  0  0  0  0  0  0  0
   -1.0070   11.1160   12.4330 H   0  0  0  0  0  0  0  0  0  0  0  0
   -2.2470    4.5760   13.7270 H   0  0  0  0  0  0  0  0  0  0  0  0
   -3.0400    2.8220   15.2420 H   0  0  0  0  0  0  0  0  0  0  0  0
  1 23  1  0  0  0  0
  2  4  2  0  0  0  0
  2 21  1  0  0  0  0
  2 23  1  0  0  0  0
  3 23  2  0  0  0  0
  4  7  1  0  0  0  0
  5 10  1  0  0  0  0
  5 12  1  0  0  0  0
  6 23  2  0  0  0  0
  7 10  2  0  0  0  0
  8 11  1  0  0  0  0
  8 13  2  0  0  0  0
  8 17  1  0  0  0  0
  9 12  2  0  0  0  0
 10 20  1  0  0  0  0
 12 14  1  0  0  0  0
 14 15  2  0  0  0  0
 14 19  1  0  0  0  0
 15 16  1  0  0  0  0
 16 17  2  0  0  0  0
 17 18  1  0  0  0  0
 18 19  2  0  0  0  0
 20 21  2  0  0  0  0
 22 19  1  0  0  0  0
 24  5  1  0  0  0  0
 25  4  1  0  0  0  0
 26  7  1  0  0  0  0
 27  1  1  0  0  0  0
 28 15  1  0  0  0  0
 29 16  1  0  0  0  0
 30 18  1  0  0  0  0
 31 20  1  0  0  0  0
 32 21  1  0  0  0  0
M  CHG  3   1  -1   8   1  11  -1
M  END
>  <deltaG_kcalmol>
-11.7

>  <number_of_rotatable_bonds>
5

>  <charge>
-1

>  <lm5_entropy_jk>
22.88451973684482

$$$$
