3KXH
  Avogadro

 28 29  0  0  0  0  0  0  0  0999 V2000
   22.0520    7.1100   20.4700 C   0  0  0  0  0  0  0  0  0  0  0  0
   22.9690    6.5560   19.5630 C   0  0  0  0  0  0  0  0  0  0  0  0
   23.3580    7.2670   18.3590 C   0  0  0  0  0  0  0  0  0  0  0  0
   22.6770    8.4570   18.0330 C   0  0  0  0  0  0  0  0  0  0  0  0
   21.6680    8.9040   18.8810 C   0  0  0  0  0  0  0  0  0  0  0  0
   21.3920    8.2710   20.1230 C   0  0  0  0  0  0  0  0  0  0  0  0
   23.6670    5.3680   19.6810 N   0  0  0  0  0  0  0  0  0  0  0  0
   24.3960    6.5120   17.8000 N   0  0  0  0  0  0  0  0  0  0  0  0
   24.5270    5.3440   18.6120 C   0  0  0  0  0  0  0  0  0  0  0  0
   25.5560    4.3810   18.3760 N   0  0  0  0  0  0  0  0  0  0  0  0
   25.8790    3.5560   19.5810 C   0  0  0  0  0  0  0  0  0  0  0  0
   25.3180    3.5160   17.1850 C   0  0  0  0  0  0  0  0  0  0  0  0
   25.2960    6.8900   16.7050 C   0  0  0  0  0  0  0  0  0  0  0  0
   24.6130    6.7820   15.2690 C   0  0  0  0  0  0  0  0  0  0  0  0
   23.3840    6.7500   15.2500 O   0  0  0  0  0  0  0  0  0  0  0  0
   25.3890    6.7610   14.3050 O   0  5  0  0  0  0  0  0  0  0  0  0
   23.1830    9.4890   16.5360 Br  0  0  0  0  0  0  0  0  0  0  0  0
   20.6710   10.4650   18.4050 Br  0  0  0  0  0  0  0  0  0  0  0  0
   20.1660    9.0630   21.3560 Br  0  0  0  0  0  0  0  0  0  0  0  0
   21.9310    6.2090   22.1350 Br  0  0  0  0  0  0  0  0  0  0  0  0
   26.8290    3.0010   19.3600 H   0  0  0  0  0  0  0  0  0  0  0  0
   25.1490    4.1640   16.2940 H   0  0  0  0  0  0  0  0  0  0  0  0
   24.4680    2.8000   17.3180 H   0  0  0  0  0  0  0  0  0  0  0  0
   26.2510    2.9140   17.0140 H   0  0  0  0  0  0  0  0  0  0  0  0
   26.1960    6.2250   16.7430 H   0  0  0  0  0  0  0  0  0  0  0  0
   25.0870    2.8070   19.8450 H   0  0  0  0  0  0  0  0  0  0  0  0
   25.6380    7.9460   16.8550 H   0  0  0  0  0  0  0  0  0  0  0  0
   26.0530    4.2210   20.4610 H   0  0  0  0  0  0  0  0  0  0  0  0
  1  2  2  0  0  0  0
  1  6  1  0  0  0  0
  1 20  1  0  0  0  0
  2  3  1  0  0  0  0
  2  7  1  0  0  0  0
  3  4  2  0  0  0  0
  3  8  1  0  0  0  0
  4  5  1  0  0  0  0
  4 17  1  0  0  0  0
  5  6  2  0  0  0  0
  5 18  1  0  0  0  0
  6 19  1  0  0  0  0
  7  9  2  0  0  0  0
  8  9  1  0  0  0  0
  8 13  1  0  0  0  0
  9 10  1  0  0  0  0
 10 11  1  0  0  0  0
 10 12  1  0  0  0  0
 11 26  1  0  0  0  0
 11 28  1  0  0  0  0
 11 21  1  0  0  0  0
 12 22  1  0  0  0  0
 12 23  1  0  0  0  0
 12 24  1  0  0  0  0
 13 14  1  0  0  0  0
 13 25  1  0  0  0  0
 13 27  1  0  0  0  0
 14 15  2  0  0  0  0
 14 16  1  0  0  0  0
M  CHG  1  16  -1
M  END
>  <Ki_NM>
250

>  <charge>
-1

>  <number_of_rotatable_bonds>
3

>  <lm5_entropy_jk>
35.3363699446558

$$$$
