3KXH
  Avogadro

 28 29  0  0  0  0  0  0  0  0999 V2000
   22.1010    7.1580   20.6830 C   0  0  0  0  0  0  0  0  0  0  0  0
   22.9580    6.5450   19.7660 C   0  0  0  0  0  0  0  0  0  0  0  0
   23.1930    7.0760   18.5270 C   0  0  0  0  0  0  0  0  0  0  0  0
   22.5100    8.2300   18.0760 C   0  0  0  0  0  0  0  0  0  0  0  0
   21.5760    8.8250   18.9620 C   0  0  0  0  0  0  0  0  0  0  0  0
   21.3970    8.3100   20.2730 C   0  0  0  0  0  0  0  0  0  0  0  0
   23.6090    5.3870   19.9780 N   0  0  0  0  0  0  0  0  0  0  0  0
   24.0930    6.2580   17.8720 N   0  0  0  0  0  0  0  0  0  0  0  0
   24.2360    5.1970   18.8080 C   0  0  0  0  0  0  0  0  0  0  0  0
   25.0620    4.0900   18.5740 N   0  0  0  0  0  0  0  0  0  0  0  0
   25.5970    3.2570   19.6730 C   0  0  0  0  0  0  0  0  0  0  0  0
   25.1490    3.4110   17.2670 C   0  0  0  0  0  0  0  0  0  0  0  0
   25.0590    6.6440   16.7900 C   0  0  0  0  0  0  0  0  0  0  0  0
   24.7950    6.1210   15.3950 C   0  0  0  0  0  0  0  0  0  0  0  0
   23.8930    6.6120   14.7470 O   0  0  0  0  0  0  0  0  0  0  0  0
   25.6590    5.4070   14.9280 O   0  5  0  0  0  0  0  0  0  0  0  0
   22.7690    9.0060   16.3370 Br  0  0  0  0  0  0  0  0  0  0  0  0
   20.5220   10.3240   18.3660 Br  0  0  0  0  0  0  0  0  0  0  0  0
   20.1750    9.1450   21.4960 Br  0  0  0  0  0  0  0  0  0  0  0  0
   21.8870    6.4090   22.4410 Br  0  0  0  0  0  0  0  0  0  0  0  0
   26.5400    2.7740   19.3850 H   0  0  0  0  0  0  0  0  0  0  0  0
   24.3610    3.7700   16.5930 H   0  0  0  0  0  0  0  0  0  0  0  0
   25.0250    2.3240   17.3600 H   0  0  0  0  0  0  0  0  0  0  0  0
   26.1110    3.6090   16.7810 H   0  0  0  0  0  0  0  0  0  0  0  0
   26.0390    6.2380   17.0440 H   0  0  0  0  0  0  0  0  0  0  0  0
   24.8780    2.4730   19.9520 H   0  0  0  0  0  0  0  0  0  0  0  0
   25.1580    7.7260   16.7190 H   0  0  0  0  0  0  0  0  0  0  0  0
   25.7830    3.8670   20.5660 H   0  0  0  0  0  0  0  0  0  0  0  0
  1  2  2  0  0  0  0
  1  6  1  0  0  0  0
  1 20  1  0  0  0  0
  2  3  1  0  0  0  0
  2  7  1  0  0  0  0
  3  4  2  0  0  0  0
  3  8  1  0  0  0  0
  4  5  1  0  0  0  0
  4 17  1  0  0  0  0
  5  6  2  0  0  0  0
  5 18  1  0  0  0  0
  6 19  1  0  0  0  0
  7  9  2  0  0  0  0
  8  9  1  0  0  0  0
  8 13  1  0  0  0  0
  9 10  1  0  0  0  0
 10 11  1  0  0  0  0
 10 12  1  0  0  0  0
 11 26  1  0  0  0  0
 11 28  1  0  0  0  0
 11 21  1  0  0  0  0
 12 22  1  0  0  0  0
 12 23  1  0  0  0  0
 12 24  1  0  0  0  0
 13 14  1  0  0  0  0
 13 25  1  0  0  0  0
 13 27  1  0  0  0  0
 14 15  2  0  0  0  0
 14 16  1  0  0  0  0
M  CHG  1  16  -1
M  END
>  <Ki_NM>
250

>  <charge>
-1

>  <number_of_rotatable_bonds>
3

>  <lm5_entropy_jk>
35.3363699446558

$$$$
