6QCB
 OpenBabel11252210453D

 80 81  0  0  1  0  0  0  0  0999 V2000
    8.2600   18.4590    8.9620 N   0  0  0  0  0  0  0  0  0  0  0  0
   11.1910   17.8820    7.6110 C   0  0  1  0  0  0  0  0  0  0  0  0
   12.1250   18.6800    6.8510 O   0  0  0  0  0  0  0  0  0  0  0  0
    9.8150   18.2770    7.0370 C   0  0  0  0  0  0  0  0  0  0  0  0
    4.7420   17.4890    9.5770 N   0  0  0  0  0  0  0  0  0  0  0  0
    5.5980   19.3330    8.5200 O   0  0  0  0  0  0  0  0  0  0  0  0
    8.6710   17.7030    7.8480 C   0  0  0  0  0  0  0  0  0  0  0  0
   11.6760   16.0360    6.0080 N   0  0  0  0  0  0  0  0  0  0  0  0
    8.1510   16.6270    7.6050 O   0  0  0  0  0  0  0  0  0  0  0  0
    7.1610   17.9900    9.8320 C   0  0  1  0  0  0  0  0  0  0  0  0
   10.3280   14.1640    6.0150 O   0  0  0  0  0  0  0  0  0  0  0  0
    7.3200   18.5380   11.2810 C   0  0  0  0  0  0  0  0  0  0  0  0
    6.4720   17.7210   12.2650 C   0  0  0  0  0  0  0  0  0  0  0  0
    7.0100   20.0320   11.3910 C   0  0  0  0  0  0  0  0  0  0  0  0
    5.7880   18.3480    9.2130 C   0  0  0  0  0  0  0  0  0  0  0  0
    3.4580   17.4610    8.8290 C   0  0  0  0  0  0  0  0  0  0  0  0
    3.3860   16.2760    7.8460 C   0  0  0  0  0  0  0  0  0  0  0  0
    4.3930   16.3590    6.6900 C   0  0  0  0  0  0  0  0  0  0  0  0
    3.9570   17.3210    5.5730 C   0  0  0  0  0  0  0  0  0  0  0  0
    5.1280   17.8810    4.7470 C   0  0  0  0  0  0  0  0  0  0  0  0
    6.0860   16.7940    4.2330 C   0  0  0  0  0  0  0  0  0  0  0  0
    6.9460   17.2900    3.0600 C   0  0  0  0  0  0  0  0  0  0  0  0
    7.9420   16.2260    2.5650 C   0  0  0  0  0  0  0  0  0  0  0  0
    9.2030   16.1390    3.4350 C   0  0  0  0  0  0  0  0  0  0  0  0
   10.0330   14.8900    3.1020 C   0  0  0  0  0  0  0  0  0  0  0  0
   11.3400   14.8200    3.9080 C   0  0  0  0  0  0  0  0  0  0  0  0
   11.5500   16.3640    7.4380 C   0  0  1  0  0  0  0  0  0  0  0  0
   11.0570   14.9260    5.4000 C   0  0  0  0  0  0  0  0  0  0  0  0
   12.8510   16.0510    8.2300 C   0  0  0  0  0  0  0  0  0  0  0  0
   13.3560   14.6480    8.0290 C   0  0  0  0  0  0  0  0  0  0  0  0
   12.6970   13.5560    8.6180 C   0  0  0  0  0  0  0  0  0  0  0  0
   13.1470   12.2520    8.4050 C   0  0  0  0  0  0  0  0  0  0  0  0
   14.2770   12.0170    7.6150 C   0  0  0  0  0  0  0  0  0  0  0  0
   14.9620   13.1000    7.0560 C   0  0  0  0  0  0  0  0  0  0  0  0
   14.5080   14.4060    7.2630 C   0  0  0  0  0  0  0  0  0  0  0  0
   15.0620   15.2380    6.8310 H   0  0  0  0  0  0  0  0  0  0  0  0
    8.5670   19.4370    9.0740 H   0  0  0  0  0  0  0  0  0  0  0  0
   11.2680   18.1670    8.6870 H   0  0  0  0  0  0  0  0  0  0  0  0
   12.7860   19.1160    7.5050 H   0  0  0  0  0  0  0  0  0  0  0  0
    9.7320   17.8970    5.9840 H   0  0  0  0  0  0  0  0  0  0  0  0
    4.9750   16.5770   10.0150 H   0  0  0  0  0  0  0  0  0  0  0  0
   12.4710   16.5000    5.5390 H   0  0  0  0  0  0  0  0  0  0  0  0
    7.2370   16.8710    9.9010 H   0  0  0  0  0  0  0  0  0  0  0  0
    8.3880   18.3560   11.5600 H   0  0  0  0  0  0  0  0  0  0  0  0
    6.7490   17.9910   13.3090 H   0  0  0  0  0  0  0  0  0  0  0  0
    7.6200   20.6140   10.6690 H   0  0  0  0  0  0  0  0  0  0  0  0
    3.3210   18.4300    8.2820 H   0  0  0  0  0  0  0  0  0  0  0  0
    2.3450   16.2330    7.4390 H   0  0  0  0  0  0  0  0  0  0  0  0
    4.5090   15.3380    6.2580 H   0  0  0  0  0  0  0  0  0  0  0  0
    3.4130   18.1890    6.0150 H   0  0  0  0  0  0  0  0  0  0  0  0
    5.7030   18.6010    5.3730 H   0  0  0  0  0  0  0  0  0  0  0  0
    5.4960   15.9140    3.8910 H   0  0  0  0  0  0  0  0  0  0  0  0
    7.5000   18.2070    3.3590 H   0  0  0  0  0  0  0  0  0  0  0  0
    8.2440   16.4800    1.5220 H   0  0  0  0  0  0  0  0  0  0  0  0
    8.9070   16.1150    4.5090 H   0  0  0  0  0  0  0  0  0  0  0  0
   10.3020   14.9090    2.0170 H   0  0  0  0  0  0  0  0  0  0  0  0
   12.0190   15.6380    3.5630 H   0  0  0  0  0  0  0  0  0  0  0  0
   10.7110   15.7630    7.8780 H   0  0  0  0  0  0  0  0  0  0  0  0
   12.6420   16.2250    9.3170 H   0  0  0  0  0  0  0  0  0  0  0  0
   11.8460   13.7350    9.2670 H   0  0  0  0  0  0  0  0  0  0  0  0
   12.6210   11.4140    8.8690 H   0  0  0  0  0  0  0  0  0  0  0  0
   14.6290   10.9980    7.4460 H   0  0  0  0  0  0  0  0  0  0  0  0
   15.8620   12.9300    6.4590 H   0  0  0  0  0  0  0  0  0  0  0  0
   13.6360   16.7870    7.9310 H   0  0  0  0  0  0  0  0  0  0  0  0
    9.7640   19.3910    7.0000 H   0  0  0  0  0  0  0  0  0  0  0  0
    6.6470   16.6340   12.1170 H   0  0  0  0  0  0  0  0  0  0  0  0
    7.2180   20.3900   12.4240 H   0  0  0  0  0  0  0  0  0  0  0  0
    2.6420   17.3520    9.5950 H   0  0  0  0  0  0  0  0  0  0  0  0
    3.5690   15.3290    8.4110 H   0  0  0  0  0  0  0  0  0  0  0  0
    5.3870   16.6750    7.0860 H   0  0  0  0  0  0  0  0  0  0  0  0
    3.2530   16.7860    4.8920 H   0  0  0  0  0  0  0  0  0  0  0  0
    4.6990   18.4350    3.8790 H   0  0  0  0  0  0  0  0  0  0  0  0
    6.7530   16.4790    5.0680 H   0  0  0  0  0  0  0  0  0  0  0  0
    6.2720   17.5440    2.2110 H   0  0  0  0  0  0  0  0  0  0  0  0
    7.4310   15.2380    2.5450 H   0  0  0  0  0  0  0  0  0  0  0  0
    9.8280   17.0460    3.2610 H   0  0  0  0  0  0  0  0  0  0  0  0
    9.4360   13.9730    3.3020 H   0  0  0  0  0  0  0  0  0  0  0  0
   11.8420   13.8440    3.6990 H   0  0  0  0  0  0  0  0  0  0  0  0
    5.9340   20.2240   11.1790 H   0  0  0  0  0  0  0  0  0  0  0  0
    5.3850   17.9290   12.1400 H   0  0  0  0  0  0  0  0  0  0  0  0
  1 37  1  0  0  0  0
  1 10  1  0  0  0  0
  2 38  1  1  0  0  0
  2 27  1  0  0  0  0
  3 39  1  0  0  0  0
  3  2  1  0  0  0  0
  4  2  1  0  0  0  0
  4  7  1  0  0  0  0
  5 41  1  0  0  0  0
  6 15  2  0  0  0  0
  7  1  1  0  0  0  0
  8 27  1  0  0  0  0
  9  7  2  0  0  0  0
 10 43  1  1  0  0  0
 10 12  1  0  0  0  0
 12 44  1  0  0  0  0
 12 13  1  0  0  0  0
 13 66  1  0  0  0  0
 13 45  1  0  0  0  0
 14 12  1  0  0  0  0
 14 67  1  0  0  0  0
 15  5  1  0  0  0  0
 15 10  1  0  0  0  0
 16  5  1  0  0  0  0
 16 68  1  0  0  0  0
 17 69  1  0  0  0  0
 17 16  1  0  0  0  0
 18 70  1  0  0  0  0
 18 17  1  0  0  0  0
 19 50  1  0  0  0  0
 19 18  1  0  0  0  0
 20 51  1  0  0  0  0
 20 19  1  0  0  0  0
 21 20  1  0  0  0  0
 21 73  1  0  0  0  0
 22 53  1  0  0  0  0
 22 21  1  0  0  0  0
 23 22  1  0  0  0  0
 23 24  1  0  0  0  0
 24 55  1  0  0  0  0
 25 77  1  0  0  0  0
 25 24  1  0  0  0  0
 25 26  1  0  0  0  0
 26 28  1  0  0  0  0
 27 58  1  1  0  0  0
 27 29  1  0  0  0  0
 28  8  1  0  0  0  0
 28 11  2  0  0  0  0
 29 30  1  0  0  0  0
 29 59  1  0  0  0  0
 30 31  2  0  0  0  0
 31 32  1  0  0  0  0
 31 60  1  0  0  0  0
 32 61  1  0  0  0  0
 33 62  1  0  0  0  0
 33 32  2  0  0  0  0
 34 33  1  0  0  0  0
 35 34  2  0  0  0  0
 35 30  1  0  0  0  0
 36 35  1  0  0  0  0
 40  4  1  0  0  0  0
 42  8  1  0  0  0  0
 46 14  1  0  0  0  0
 47 16  1  0  0  0  0
 48 17  1  0  0  0  0
 49 18  1  0  0  0  0
 52 21  1  0  0  0  0
 54 23  1  0  0  0  0
 56 25  1  0  0  0  0
 57 26  1  0  0  0  0
 63 34  1  0  0  0  0
 64 29  1  0  0  0  0
 65  4  1  0  0  0  0
 71 19  1  0  0  0  0
 72 20  1  0  0  0  0
 74 22  1  0  0  0  0
 75 23  1  0  0  0  0
 76 24  1  0  0  0  0
 78 26  1  0  0  0  0
 79 14  1  0  0  0  0
 80 13  1  0  0  0  0
M  END
>  <IC50_NM>
5.8

>  <number_of_rotatable_bonds>
3

>  <charge>
0

>  <lm5_entropy_jk>
30.51387600249522

$$$$
