5NXI
 OpenBabel11252210453D

 31 32  0  0  0  0  0  0  0  0999 V2000
   -3.8740    6.9360   13.3860 N   0  0  0  0  0  0  0  0  0  0  0  0
   -5.8630    1.3660   16.0260 N   0  5  0  0  0  0  0  0  0  0  0  0
   -2.9700    8.4620   11.4230 C   0  0  0  0  0  0  0  0  0  0  0  0
   -1.5670    8.3430   11.3300 C   0  0  0  0  0  0  0  0  0  0  0  0
   -0.8080    9.4890   11.0480 C   0  0  0  0  0  0  0  0  0  0  0  0
   -1.4290   10.7300   10.8530 C   0  0  0  0  0  0  0  0  0  0  0  0
   -2.8240   10.8310   10.9300 C   0  0  0  0  0  0  0  0  0  0  0  0
   -3.6100    9.7040   11.2130 C   0  0  0  0  0  0  0  0  0  0  0  0
   -5.6730    5.9840   14.5660 C   0  0  0  0  0  0  0  0  0  0  0  0
   -6.1890    4.9630   15.3710 C   0  0  0  0  0  0  0  0  0  0  0  0
   -5.4040    3.8280   15.6210 C   0  0  0  0  0  0  0  0  0  0  0  0
   -4.0950    3.7440   15.1250 C   0  0  0  0  0  0  0  0  0  0  0  0
   -3.6130    4.7940   14.3290 C   0  0  0  0  0  0  0  0  0  0  0  0
   -4.3970    5.8930   14.0380 C   0  0  0  0  0  0  0  0  0  0  0  0
   -3.3230    5.7960   11.2960 O   0  0  0  0  0  0  0  0  0  0  0  0
   -5.3680    7.3580   11.6640 O   0  0  0  0  0  0  0  0  0  0  0  0
   -4.9810    2.7070   17.8190 O   0  0  0  0  0  0  0  0  0  0  0  0
   -7.3450    3.0560   17.1030 O   0  0  0  0  0  0  0  0  0  0  0  0
   -0.3760   12.2840   10.4820 Br  0  0  0  0  0  0  0  0  0  0  0  0
   -3.9480    7.0250   11.7960 S   0  0  0  0  0  0  0  0  0  0  0  0
   -5.9890    2.6910   16.8000 S   0  0  0  0  0  0  0  0  0  0  0  0
   -4.5660    7.6560   13.2540 H   0  0  0  0  0  0  0  0  0  0  0  0
   -5.0240    1.3270   16.6640 H   0  0  0  0  0  0  0  0  0  0  0  0
   -1.0500    7.3860   11.4770 H   0  0  0  0  0  0  0  0  0  0  0  0
    0.2780    9.4140   10.9810 H   0  0  0  0  0  0  0  0  0  0  0  0
   -3.3050   11.7970   10.7680 H   0  0  0  0  0  0  0  0  0  0  0  0
   -4.7010    9.8180   11.2610 H   0  0  0  0  0  0  0  0  0  0  0  0
   -6.2710    6.8740   14.4040 H   0  0  0  0  0  0  0  0  0  0  0  0
   -7.1690    5.0930   15.8380 H   0  0  0  0  0  0  0  0  0  0  0  0
   -3.4380    2.9080   15.3740 H   0  0  0  0  0  0  0  0  0  0  0  0
   -2.5940    4.7640   13.9610 H   0  0  0  0  0  0  0  0  0  0  0  0
  1 20  1  0  0  0  0
  2 21  1  0  0  0  0
  3  4  2  0  0  0  0
  3  8  1  0  0  0  0
  3 20  1  0  0  0  0
  4  5  1  0  0  0  0
  5  6  2  0  0  0  0
  6  7  1  0  0  0  0
  6 19  1  0  0  0  0
  7  8  2  0  0  0  0
  9 10  2  0  0  0  0
  9 14  1  0  0  0  0
 10 11  1  0  0  0  0
 11 12  2  0  0  0  0
 11 21  1  0  0  0  0
 12 13  1  0  0  0  0
 13 14  2  0  0  0  0
 14  1  1  0  0  0  0
 15 20  2  0  0  0  0
 16 20  2  0  0  0  0
 17 21  2  0  0  0  0
 18 21  2  0  0  0  0
 22  1  1  0  0  0  0
 23  2  1  0  0  0  0
 24  4  1  0  0  0  0
 25  5  1  0  0  0  0
 26  7  1  0  0  0  0
 27  8  1  0  0  0  0
 28  9  1  0  0  0  0
 29 10  1  0  0  0  0
 30 12  1  0  0  0  0
 31 13  1  0  0  0  0
M  CHG  1   2  -1
M  END
>  <deltaG_kcalmol>
-9.1

>  <number_of_rotatable_bonds>
4

>  <charge>
-1

>  <lm5_entropy_jk>
23.26150331504224

$$$$
