2Q5K
 OpenBabel11252210453D

 94 97  0  0  1  0  0  0  0  0999 V2000
    7.2960   -9.0810   18.1640 C   0  0  0  0  0  0  0  0  0  0  0  0
    7.4630   -6.3210   17.3480 N   0  0  0  0  0  0  0  0  0  0  0  0
    7.2500   -5.7290   19.5460 O   0  0  0  0  0  0  0  0  0  0  0  0
    7.3130   -7.3760   16.3280 C   0  0  0  0  0  0  0  0  0  0  0  0
    7.1780   -7.9150   19.0630 N   0  0  0  0  0  0  0  0  0  0  0  0
    6.7890   -4.0600   14.8630 O   0  0  0  0  0  0  0  0  0  0  0  0
    7.2850   -6.5960   18.7030 C   0  0  0  0  0  0  0  0  0  0  0  0
    5.6570   -3.9120   16.8200 N   0  0  0  0  0  0  0  0  0  0  0  0
    2.6340    1.4020   12.7150 O   0  0  0  0  0  0  0  0  0  0  0  0
    7.2840    0.3780   12.9230 C   0  0  0  0  0  0  0  0  0  0  0  0
    4.6320   -0.1620   13.9270 N   0  0  0  0  0  0  0  0  0  0  0  0
    5.1480    0.2820   16.7020 O   0  0  0  0  0  0  0  0  0  0  0  0
    7.0640    1.7000   12.5050 C   0  0  0  0  0  0  0  0  0  0  0  0
    4.1680   -1.7640   12.4050 O   0  0  0  0  0  0  0  0  0  0  0  0
    7.2820    2.0700   11.1670 C   0  0  0  0  0  0  0  0  0  0  0  0
    7.7240    1.1100   10.2430 C   0  0  0  0  0  0  0  0  0  0  0  0
    7.9620   -0.2090   10.6610 C   0  0  0  0  0  0  0  0  0  0  0  0
    7.7360   -0.5740   12.0000 C   0  0  0  0  0  0  0  0  0  0  0  0
    7.8730   -4.9490   16.8750 C   0  0  2  0  0  0  0  0  0  0  0  0
    6.7470   -4.2700   16.0660 C   0  0  0  0  0  0  0  0  0  0  0  0
    4.4080   -3.4120   16.2780 C   0  0  1  0  0  0  0  0  0  0  0  0
    9.3020   -4.9260   16.2400 C   0  0  0  0  0  0  0  0  0  0  0  0
    9.7600   -3.5090   15.8660 C   0  0  0  0  0  0  0  0  0  0  0  0
   10.3440   -5.4400   17.2520 C   0  0  0  0  0  0  0  0  0  0  0  0
    2.3590   -7.5360   15.6930 C   0  0  0  0  0  0  0  0  0  0  0  0
    2.9880   -8.3740   16.6290 C   0  0  0  0  0  0  0  0  0  0  0  0
    3.7220   -7.8140   17.6860 C   0  0  0  0  0  0  0  0  0  0  0  0
    3.8210   -6.4190   17.8010 C   0  0  0  0  0  0  0  0  0  0  0  0
    3.1940   -5.5830   16.8680 C   0  0  0  0  0  0  0  0  0  0  0  0
    2.4640   -6.1420   15.8120 C   0  0  0  0  0  0  0  0  0  0  0  0
    3.2550   -4.0840   17.0370 C   0  0  0  0  0  0  0  0  0  0  0  0
    4.2710   -1.8980   16.5110 C   0  0  0  0  0  0  0  0  0  0  0  0
    5.4620   -0.9920   16.1490 C   0  0  1  0  0  0  0  0  0  0  0  0
    5.7450   -0.8310   14.6200 C   0  0  2  0  0  0  0  0  0  0  0  0
    4.0870   -0.6050   12.7610 C   0  0  0  0  0  0  0  0  0  0  0  0
    3.4170    0.4640   11.9240 C   0  0  0  0  0  0  0  0  0  0  0  0
    1.9070    2.3700   12.0450 C   0  0  0  0  0  0  0  0  0  0  0  0
    7.0440   -0.0070   14.3710 C   0  0  0  0  0  0  0  0  0  0  0  0
    0.5040    2.2410   11.9420 C   0  0  0  0  0  0  0  0  0  0  0  0
   -0.2300    3.1740   11.1990 C   0  0  0  0  0  0  0  0  0  0  0  0
    0.4160    4.2440   10.5610 C   0  0  0  0  0  0  0  0  0  0  0  0
    1.8070    4.3910   10.6900 C   0  0  0  0  0  0  0  0  0  0  0  0
    2.5550    3.4720   11.4370 C   0  0  0  0  0  0  0  0  0  0  0  0
    4.0490    3.7070   11.5620 C   0  0  0  0  0  0  0  0  0  0  0  0
   -0.2480    1.0920   12.5830 C   0  0  0  0  0  0  0  0  0  0  0  0
    7.9880   -8.6520   16.8600 C   0  0  0  0  0  0  0  0  0  0  0  0
    6.2920   -9.4730   17.9380 H   0  0  0  0  0  0  0  0  0  0  0  0
    7.8580   -9.8900   18.6610 H   0  0  0  0  0  0  0  0  0  0  0  0
    7.7410   -7.0620   15.3660 H   0  0  0  0  0  0  0  0  0  0  0  0
    6.2390   -7.5560   16.1610 H   0  0  0  0  0  0  0  0  0  0  0  0
    7.0740   -8.0340   20.0700 H   0  0  0  0  0  0  0  0  0  0  0  0
    5.7000   -4.1380   17.8080 H   0  0  0  0  0  0  0  0  0  0  0  0
    4.4120    0.7950   14.1630 H   0  0  0  0  0  0  0  0  0  0  0  0
    6.0160    0.5840   17.0770 H   0  0  0  0  0  0  0  0  0  0  0  0
    6.7240    2.4440   13.2210 H   0  0  0  0  0  0  0  0  0  0  0  0
    7.1150    3.1000   10.8490 H   0  0  0  0  0  0  0  0  0  0  0  0
    7.8870    1.3950    9.2050 H   0  0  0  0  0  0  0  0  0  0  0  0
    8.3210   -0.9470    9.9490 H   0  0  0  0  0  0  0  0  0  0  0  0
    7.9150   -1.5930   12.3270 H   0  0  0  0  0  0  0  0  0  0  0  0
    7.9380   -4.3040   17.7510 H   0  0  0  0  0  0  0  0  0  0  0  0
    4.3450   -3.6490   15.1990 H   0  0  0  0  0  0  0  0  0  0  0  0
    9.3020   -5.5560   15.3360 H   0  0  0  0  0  0  0  0  0  0  0  0
   10.7760   -3.5160   15.4550 H   0  0  0  0  0  0  0  0  0  0  0  0
    9.1080   -3.0690   15.1020 H   0  0  0  0  0  0  0  0  0  0  0  0
    9.7560   -2.8460   16.7350 H   0  0  0  0  0  0  0  0  0  0  0  0
   11.3380   -5.5290   16.8050 H   0  0  0  0  0  0  0  0  0  0  0  0
   10.4240   -4.7730   18.1200 H   0  0  0  0  0  0  0  0  0  0  0  0
   10.0720   -6.4330   17.6280 H   0  0  0  0  0  0  0  0  0  0  0  0
    1.8020   -7.9640   14.8690 H   0  0  0  0  0  0  0  0  0  0  0  0
    2.9160   -9.4570   16.5310 H   0  0  0  0  0  0  0  0  0  0  0  0
    4.2190   -8.4530   18.4130 H   0  0  0  0  0  0  0  0  0  0  0  0
    4.4000   -5.9810   18.6110 H   0  0  0  0  0  0  0  0  0  0  0  0
    1.9670   -5.4940   15.0970 H   0  0  0  0  0  0  0  0  0  0  0  0
    2.3030   -3.6430   16.7270 H   0  0  0  0  0  0  0  0  0  0  0  0
    3.3440   -3.8530   18.1050 H   0  0  0  0  0  0  0  0  0  0  0  0
    4.0960   -1.7530   17.5810 H   0  0  0  0  0  0  0  0  0  0  0  0
    3.3720   -1.5280   16.0080 H   0  0  0  0  0  0  0  0  0  0  0  0
    6.3710   -1.3920   16.6300 H   0  0  0  0  0  0  0  0  0  0  0  0
    5.8800   -1.8430   14.2030 H   0  0  0  0  0  0  0  0  0  0  0  0
    4.2190    0.9690   11.3790 H   0  0  0  0  0  0  0  0  0  0  0  0
    2.7920   -0.0590   11.1940 H   0  0  0  0  0  0  0  0  0  0  0  0
    7.0140    0.9030   14.9810 H   0  0  0  0  0  0  0  0  0  0  0  0
    7.9070   -0.5600   14.7590 H   0  0  0  0  0  0  0  0  0  0  0  0
   -1.3030    3.0410   11.0950 H   0  0  0  0  0  0  0  0  0  0  0  0
   -0.1550    4.9480    9.9530 H   0  0  0  0  0  0  0  0  0  0  0  0
    2.3130    5.2090   10.1810 H   0  0  0  0  0  0  0  0  0  0  0  0
    4.2920    4.7720   11.6510 H   0  0  0  0  0  0  0  0  0  0  0  0
    4.4500    3.2080   12.4520 H   0  0  0  0  0  0  0  0  0  0  0  0
    4.5780    3.3140   10.6880 H   0  0  0  0  0  0  0  0  0  0  0  0
   -0.5370    0.3530   11.8300 H   0  0  0  0  0  0  0  0  0  0  0  0
    0.3680    0.5810   13.3310 H   0  0  0  0  0  0  0  0  0  0  0  0
   -1.1470    1.4580   13.0900 H   0  0  0  0  0  0  0  0  0  0  0  0
    7.9290   -9.4600   16.1250 H   0  0  0  0  0  0  0  0  0  0  0  0
    9.0540   -8.4620   17.0460 H   0  0  0  0  0  0  0  0  0  0  0  0
  1  5  1  0  0  0  0
  1 46  1  0  0  0  0
  1 47  1  0  0  0  0
  1 48  1  0  0  0  0
  2  4  1  0  0  0  0
  2  7  1  0  0  0  0
  2 19  1  0  0  0  0
  3  7  2  0  0  0  0
  4 46  1  0  0  0  0
  4 49  1  0  0  0  0
  4 50  1  0  0  0  0
  5  7  1  0  0  0  0
  5 51  1  0  0  0  0
  6 20  2  0  0  0  0
  8 20  1  0  0  0  0
  8 21  1  0  0  0  0
  8 52  1  0  0  0  0
  9 36  1  0  0  0  0
  9 37  1  0  0  0  0
 10 13  2  0  0  0  0
 10 18  1  0  0  0  0
 10 38  1  0  0  0  0
 11 34  1  0  0  0  0
 11 35  1  0  0  0  0
 11 53  1  0  0  0  0
 12 33  1  0  0  0  0
 12 54  1  0  0  0  0
 13 15  1  0  0  0  0
 13 55  1  0  0  0  0
 14 35  2  0  0  0  0
 15 16  2  0  0  0  0
 15 56  1  0  0  0  0
 16 17  1  0  0  0  0
 16 57  1  0  0  0  0
 17 18  2  0  0  0  0
 17 58  1  0  0  0  0
 18 59  1  0  0  0  0
 19 20  1  0  0  0  0
 19 22  1  0  0  0  0
 19 60  1  1  0  0  0
 21 31  1  0  0  0  0
 21 32  1  0  0  0  0
 21 61  1  6  0  0  0
 22 23  1  0  0  0  0
 22 24  1  0  0  0  0
 22 62  1  0  0  0  0
 23 63  1  0  0  0  0
 23 64  1  0  0  0  0
 23 65  1  0  0  0  0
 24 66  1  0  0  0  0
 24 67  1  0  0  0  0
 24 68  1  0  0  0  0
 25 26  2  0  0  0  0
 25 30  1  0  0  0  0
 25 69  1  0  0  0  0
 26 27  1  0  0  0  0
 26 70  1  0  0  0  0
 27 28  2  0  0  0  0
 27 71  1  0  0  0  0
 28 29  1  0  0  0  0
 28 72  1  0  0  0  0
 29 30  2  0  0  0  0
 29 31  1  0  0  0  0
 30 73  1  0  0  0  0
 31 74  1  0  0  0  0
 31 75  1  0  0  0  0
 32 33  1  0  0  0  0
 32 76  1  0  0  0  0
 32 77  1  0  0  0  0
 33 34  1  0  0  0  0
 33 78  1  1  0  0  0
 34 38  1  0  0  0  0
 34 79  1  6  0  0  0
 35 36  1  0  0  0  0
 36 80  1  0  0  0  0
 36 81  1  0  0  0  0
 37 39  2  0  0  0  0
 37 43  1  0  0  0  0
 38 82  1  0  0  0  0
 38 83  1  0  0  0  0
 39 40  1  0  0  0  0
 39 45  1  0  0  0  0
 40 41  2  0  0  0  0
 40 84  1  0  0  0  0
 41 42  1  0  0  0  0
 41 85  1  0  0  0  0
 42 43  2  0  0  0  0
 42 86  1  0  0  0  0
 43 44  1  0  0  0  0
 44 87  1  0  0  0  0
 44 88  1  0  0  0  0
 44 89  1  0  0  0  0
 45 90  1  0  0  0  0
 45 91  1  0  0  0  0
 45 92  1  0  0  0  0
 46 93  1  0  0  0  0
 46 94  1  0  0  0  0
M  END
>  <charge>
0

>  <KI_NM>
0.018

>  <number_of_rotatable_bonds>
17

>  <lm5_entropy_jk>
46.32548928686939

>  <ligand_crystal_conformation>
A

$$$$
