2Q5K
 OpenBabel11252210453D

 94 97  0  0  1  0  0  0  0  0999 V2000
    7.9160   -8.9020   19.1770 C   0  0  0  0  0  0  0  0  0  0  0  0
    7.8660   -6.3650   17.7650 N   0  0  0  0  0  0  0  0  0  0  0  0
    6.6020   -5.5370   19.4910 O   0  0  0  0  0  0  0  0  0  0  0  0
    8.5260   -7.5720   17.1990 C   0  0  0  0  0  0  0  0  0  0  0  0
    7.1020   -7.7260   19.5380 N   0  0  0  0  0  0  0  0  0  0  0  0
    6.9140   -4.4740   14.9290 O   0  0  0  0  0  0  0  0  0  0  0  0
    7.1330   -6.4810   18.9480 C   0  0  0  0  0  0  0  0  0  0  0  0
    5.6950   -4.2000   16.8190 N   0  0  0  0  0  0  0  0  0  0  0  0
    2.5360    1.4380   12.8000 O   0  0  0  0  0  0  0  0  0  0  0  0
    7.3010    0.5330   13.1110 C   0  0  0  0  0  0  0  0  0  0  0  0
    4.6250   -0.1140   14.0700 N   0  0  0  0  0  0  0  0  0  0  0  0
    5.2400    0.0030   16.9550 O   0  0  0  0  0  0  0  0  0  0  0  0
    7.2620    1.8940   12.7710 C   0  0  0  0  0  0  0  0  0  0  0  0
    3.4380   -1.9040   13.3380 O   0  0  0  0  0  0  0  0  0  0  0  0
    7.5660    2.3160   11.4670 C   0  0  0  0  0  0  0  0  0  0  0  0
    7.9360    1.3730   10.4970 C   0  0  0  0  0  0  0  0  0  0  0  0
    7.9980    0.0130   10.8340 C   0  0  0  0  0  0  0  0  0  0  0  0
    7.6630   -0.4060   12.1350 C   0  0  0  0  0  0  0  0  0  0  0  0
    8.0270   -5.0080   17.0790 C   0  0  2  0  0  0  0  0  0  0  0  0
    6.8360   -4.5900   16.1480 C   0  0  0  0  0  0  0  0  0  0  0  0
    4.5060   -3.6520   16.1600 C   0  0  1  0  0  0  0  0  0  0  0  0
    9.4560   -4.7450   16.5030 C   0  0  0  0  0  0  0  0  0  0  0  0
    9.6510   -3.2940   16.0380 C   0  0  0  0  0  0  0  0  0  0  0  0
   10.4990   -4.9680   17.6130 C   0  0  0  0  0  0  0  0  0  0  0  0
    3.3810   -7.9640   15.2280 C   0  0  0  0  0  0  0  0  0  0  0  0
    3.5140   -8.7310   16.3960 C   0  0  0  0  0  0  0  0  0  0  0  0
    3.5520   -8.0980   17.6490 C   0  0  0  0  0  0  0  0  0  0  0  0
    3.4730   -6.6960   17.7240 C   0  0  0  0  0  0  0  0  0  0  0  0
    3.3380   -5.9240   16.5590 C   0  0  0  0  0  0  0  0  0  0  0  0
    3.2580   -6.5650   15.3150 C   0  0  0  0  0  0  0  0  0  0  0  0
    3.2510   -4.4100   16.6520 C   0  0  0  0  0  0  0  0  0  0  0  0
    4.3130   -2.1430   16.4760 C   0  0  0  0  0  0  0  0  0  0  0  0
    5.5090   -1.1850   16.2190 C   0  0  1  0  0  0  0  0  0  0  0  0
    5.7570   -0.8120   14.7100 C   0  0  2  0  0  0  0  0  0  0  0  0
    3.6740   -0.7100   13.2940 C   0  0  0  0  0  0  0  0  0  0  0  0
    3.0420    0.1910   12.2570 C   0  0  0  0  0  0  0  0  0  0  0  0
    2.0590    2.3430   11.8740 C   0  0  0  0  0  0  0  0  0  0  0  0
    7.0020    0.1000   14.5390 C   0  0  0  0  0  0  0  0  0  0  0  0
    0.7750    2.1620   11.3110 C   0  0  0  0  0  0  0  0  0  0  0  0
    0.3780    2.9760   10.2430 C   0  0  0  0  0  0  0  0  0  0  0  0
    1.2150    3.9950    9.7650 C   0  0  0  0  0  0  0  0  0  0  0  0
    2.4700    4.1990   10.3520 C   0  0  0  0  0  0  0  0  0  0  0  0
    2.9040    3.3730   11.3930 C   0  0  0  0  0  0  0  0  0  0  0  0
    4.3060    3.5880   11.9200 C   0  0  0  0  0  0  0  0  0  0  0  0
   -0.1880    1.0930   11.8140 C   0  0  0  0  0  0  0  0  0  0  0  0
    9.1030   -8.4410   18.3270 C   0  0  0  0  0  0  0  0  0  0  0  0
    7.2930   -9.6190   18.6180 H   0  0  0  0  0  0  0  0  0  0  0  0
    8.2600   -9.4180   20.0900 H   0  0  0  0  0  0  0  0  0  0  0  0
    9.2730   -7.3300   16.4340 H   0  0  0  0  0  0  0  0  0  0  0  0
    7.7510   -8.1810   16.7310 H   0  0  0  0  0  0  0  0  0  0  0  0
    6.6150   -7.7400   20.4280 H   0  0  0  0  0  0  0  0  0  0  0  0
    5.7300   -4.2610   17.8360 H   0  0  0  0  0  0  0  0  0  0  0  0
    4.6510    0.8980   14.0150 H   0  0  0  0  0  0  0  0  0  0  0  0
    6.1020    0.2680   17.3570 H   0  0  0  0  0  0  0  0  0  0  0  0
    6.9970    2.6320   13.5240 H   0  0  0  0  0  0  0  0  0  0  0  0
    7.5340    3.3760   11.2140 H   0  0  0  0  0  0  0  0  0  0  0  0
    8.1880    1.7020    9.4900 H   0  0  0  0  0  0  0  0  0  0  0  0
    8.3190   -0.7070   10.0870 H   0  0  0  0  0  0  0  0  0  0  0  0
    7.7080   -1.4560   12.4000 H   0  0  0  0  0  0  0  0  0  0  0  0
    7.9180   -4.2600   17.8620 H   0  0  0  0  0  0  0  0  0  0  0  0
    4.6040   -3.7820   15.0670 H   0  0  0  0  0  0  0  0  0  0  0  0
    9.6350   -5.4100   15.6420 H   0  0  0  0  0  0  0  0  0  0  0  0
   10.6740   -3.1220   15.6880 H   0  0  0  0  0  0  0  0  0  0  0  0
    8.9890   -3.0530   15.1980 H   0  0  0  0  0  0  0  0  0  0  0  0
    9.4460   -2.5760   16.8370 H   0  0  0  0  0  0  0  0  0  0  0  0
   11.5020   -4.6830   17.3080 H   0  0  0  0  0  0  0  0  0  0  0  0
   10.2510   -4.3950   18.5100 H   0  0  0  0  0  0  0  0  0  0  0  0
   10.5520   -6.0150   17.9130 H   0  0  0  0  0  0  0  0  0  0  0  0
    3.3900   -8.4560   14.2570 H   0  0  0  0  0  0  0  0  0  0  0  0
    3.6010   -9.8170   16.3320 H   0  0  0  0  0  0  0  0  0  0  0  0
    3.6680   -8.6890   18.5580 H   0  0  0  0  0  0  0  0  0  0  0  0
    3.5360   -6.2060   18.6930 H   0  0  0  0  0  0  0  0  0  0  0  0
    3.1230   -5.9710   14.4180 H   0  0  0  0  0  0  0  0  0  0  0  0
    2.3810   -4.0690   16.0820 H   0  0  0  0  0  0  0  0  0  0  0  0
    3.0490   -4.1300   17.6920 H   0  0  0  0  0  0  0  0  0  0  0  0
    4.0550   -2.0480   17.5310 H   0  0  0  0  0  0  0  0  0  0  0  0
    3.4380   -1.7600   15.9440 H   0  0  0  0  0  0  0  0  0  0  0  0
    6.4270   -1.6510   16.6190 H   0  0  0  0  0  0  0  0  0  0  0  0
    5.9390   -1.7610   14.1870 H   0  0  0  0  0  0  0  0  0  0  0  0
    3.8160    0.3880   11.5070 H   0  0  0  0  0  0  0  0  0  0  0  0
    2.2460   -0.3880   11.7820 H   0  0  0  0  0  0  0  0  0  0  0  0
    6.8700    0.9920   15.1630 H   0  0  0  0  0  0  0  0  0  0  0  0
    7.8760   -0.3940   14.9700 H   0  0  0  0  0  0  0  0  0  0  0  0
   -0.5890    2.8220    9.7730 H   0  0  0  0  0  0  0  0  0  0  0  0
    0.8920    4.6220    8.9320 H   0  0  0  0  0  0  0  0  0  0  0  0
    3.1290    4.9770    9.9670 H   0  0  0  0  0  0  0  0  0  0  0  0
    4.4040    4.5350   12.4600 H   0  0  0  0  0  0  0  0  0  0  0  0
    4.5960    2.7860   12.6080 H   0  0  0  0  0  0  0  0  0  0  0  0
    5.0360    3.5840   11.1040 H   0  0  0  0  0  0  0  0  0  0  0  0
   -1.2190    1.4610   11.8260 H   0  0  0  0  0  0  0  0  0  0  0  0
   -0.1460    0.1930   11.1900 H   0  0  0  0  0  0  0  0  0  0  0  0
    0.0570    0.8020   12.8430 H   0  0  0  0  0  0  0  0  0  0  0  0
    9.6530   -9.3080   17.9320 H   0  0  0  0  0  0  0  0  0  0  0  0
    9.8180   -7.8760   18.9420 H   0  0  0  0  0  0  0  0  0  0  0  0
  1  5  1  0  0  0  0
  1 46  1  0  0  0  0
  1 47  1  0  0  0  0
  1 48  1  0  0  0  0
  2  4  1  0  0  0  0
  2  7  1  0  0  0  0
  2 19  1  0  0  0  0
  3  7  2  0  0  0  0
  4 46  1  0  0  0  0
  4 49  1  0  0  0  0
  4 50  1  0  0  0  0
  5  7  1  0  0  0  0
  5 51  1  0  0  0  0
  6 20  2  0  0  0  0
  8 20  1  0  0  0  0
  8 21  1  0  0  0  0
  8 52  1  0  0  0  0
  9 36  1  0  0  0  0
  9 37  1  0  0  0  0
 10 13  2  0  0  0  0
 10 18  1  0  0  0  0
 10 38  1  0  0  0  0
 11 34  1  0  0  0  0
 11 35  1  0  0  0  0
 11 53  1  0  0  0  0
 12 33  1  0  0  0  0
 12 54  1  0  0  0  0
 13 15  1  0  0  0  0
 13 55  1  0  0  0  0
 14 35  2  0  0  0  0
 15 16  2  0  0  0  0
 15 56  1  0  0  0  0
 16 17  1  0  0  0  0
 16 57  1  0  0  0  0
 17 18  2  0  0  0  0
 17 58  1  0  0  0  0
 18 59  1  0  0  0  0
 19 20  1  0  0  0  0
 19 22  1  0  0  0  0
 19 60  1  1  0  0  0
 21 31  1  0  0  0  0
 21 32  1  0  0  0  0
 21 61  1  6  0  0  0
 22 23  1  0  0  0  0
 22 24  1  0  0  0  0
 22 62  1  0  0  0  0
 23 63  1  0  0  0  0
 23 64  1  0  0  0  0
 23 65  1  0  0  0  0
 24 66  1  0  0  0  0
 24 67  1  0  0  0  0
 24 68  1  0  0  0  0
 25 26  2  0  0  0  0
 25 30  1  0  0  0  0
 25 69  1  0  0  0  0
 26 27  1  0  0  0  0
 26 70  1  0  0  0  0
 27 28  2  0  0  0  0
 27 71  1  0  0  0  0
 28 29  1  0  0  0  0
 28 72  1  0  0  0  0
 29 30  2  0  0  0  0
 29 31  1  0  0  0  0
 30 73  1  0  0  0  0
 31 74  1  0  0  0  0
 31 75  1  0  0  0  0
 32 33  1  0  0  0  0
 32 76  1  0  0  0  0
 32 77  1  0  0  0  0
 33 34  1  0  0  0  0
 33 78  1  1  0  0  0
 34 38  1  0  0  0  0
 34 79  1  6  0  0  0
 35 36  1  0  0  0  0
 36 80  1  0  0  0  0
 36 81  1  0  0  0  0
 37 39  2  0  0  0  0
 37 43  1  0  0  0  0
 38 82  1  0  0  0  0
 38 83  1  0  0  0  0
 39 40  1  0  0  0  0
 39 45  1  0  0  0  0
 40 41  2  0  0  0  0
 40 84  1  0  0  0  0
 41 42  1  0  0  0  0
 41 85  1  0  0  0  0
 42 43  2  0  0  0  0
 42 86  1  0  0  0  0
 43 44  1  0  0  0  0
 44 87  1  0  0  0  0
 44 88  1  0  0  0  0
 44 89  1  0  0  0  0
 45 90  1  0  0  0  0
 45 91  1  0  0  0  0
 45 92  1  0  0  0  0
 46 93  1  0  0  0  0
 46 94  1  0  0  0  0
M  END
>  <charge>
0

>  <KI_NM>
0.018

>  <number_of_rotatable_bonds>
17

>  <lm5_entropy_jk>
46.32548928686939

>  <ligand_crystal_conformation>
A

$$$$
