1K1N
 OpenBabel11252210453D

 81 83  0  0  1  0  0  0  0  0999 V2000
    2.6240   20.8470   14.8020 C   0  0  0  0  0  0  0  0  0  0  0  0
    1.3720   22.8730   15.7200 C   0  0  0  0  0  0  0  0  0  0  0  0
    4.8610   24.2870   17.5210 O   0  0  0  0  0  0  0  0  0  0  0  0
    1.3680   24.0130   16.5650 C   0  0  0  0  0  0  0  0  0  0  0  0
    2.5690   24.4770   17.1380 C   0  0  0  0  0  0  0  0  0  0  0  0
    3.7560   23.7400   16.9180 C   0  0  0  0  0  0  0  0  0  0  0  0
    3.7590   22.5750   16.1490 C   0  0  0  0  0  0  0  0  0  0  0  0
    2.5690   22.1310   15.5600 C   0  0  0  0  0  0  0  0  0  0  0  0
    0.1240   24.7680   16.8940 C   0  0  0  0  0  0  0  0  0  0  0  0
    2.6350   25.7170   17.9740 C   0  0  0  0  0  0  0  0  0  0  0  0
    6.0970   23.5260   17.5250 C   0  0  0  0  0  0  0  0  0  0  0  0
    0.0050   22.3880   14.8010 S   0  0  0  0  0  0  0  0  0  0  0  0
   -1.1740   23.2350   15.0410 O   0  0  0  0  0  0  0  0  0  0  0  0
    0.3340   22.2850   13.3700 O   0  0  0  0  0  0  0  0  0  0  0  0
   -0.3740   20.8200   15.3730 N   0  0  0  0  0  0  0  0  0  0  0  0
   -0.9190   20.5840   16.7190 C   0  0  1  0  0  0  0  0  0  0  0  0
   -2.4570   20.4960   16.7430 C   0  0  0  0  0  0  0  0  0  0  0  0
   -3.1070   20.9480   18.0660 C   0  0  0  0  0  0  0  0  0  0  0  0
   -4.1690   21.5800   18.0440 O   0  0  0  0  0  0  0  0  0  0  0  0
   -2.5460   20.6530   19.1810 O   0  5  0  0  0  0  0  0  0  0  0  0
   -0.2950   19.2670   17.2780 C   0  0  0  0  0  0  0  0  0  0  0  0
    0.3980   18.4660   16.6530 O   0  0  0  0  0  0  0  0  0  0  0  0
   -0.5900   19.1000   18.6180 N   0  0  0  0  0  0  0  0  0  0  0  0
    0.0060   18.0240   19.4100 C   0  0  1  0  0  0  0  0  0  0  0  0
    0.4540   18.7410   20.7180 C   0  0  0  0  0  0  0  0  0  0  0  0
   -0.2920   18.8450   21.6860 O   0  0  0  0  0  0  0  0  0  0  0  0
   -1.0020   16.8890   19.7270 C   0  0  0  0  0  0  0  0  0  0  0  0
   -1.3200   16.0920   18.4990 C   0  0  0  0  0  0  0  0  0  0  0  0
   -2.2110   16.5710   17.5170 C   0  0  0  0  0  0  0  0  0  0  0  0
   -2.4700   15.8320   16.3730 C   0  0  0  0  0  0  0  0  0  0  0  0
   -1.8920   14.5520   16.1820 C   0  0  0  0  0  0  0  0  0  0  0  0
   -1.0590   14.0440   17.2100 C   0  0  0  0  0  0  0  0  0  0  0  0
   -0.7560   14.8090   18.3230 C   0  0  0  0  0  0  0  0  0  0  0  0
   -2.1590   13.7670   14.9820 C   0  0  0  0  0  0  0  0  0  0  0  0
   -2.7920   14.2710   13.8780 N   0  3  0  0  0  0  0  0  0  0  0  0
   -1.7090   12.4770   14.8510 N   0  0  0  0  0  0  0  0  0  0  0  0
    1.7660   19.2480   20.7680 N   0  0  0  0  0  0  0  0  0  0  0  0
    2.1150   20.2720   21.8020 C   0  0  0  0  0  0  0  0  0  0  0  0
    1.9830   21.7160   21.2780 C   0  0  0  0  0  0  0  0  0  0  0  0
    2.7770   21.9120   19.9770 C   0  0  0  0  0  0  0  0  0  0  0  0
    2.4340   20.8310   18.9420 C   0  0  0  0  0  0  0  0  0  0  0  0
    2.6080   19.4260   19.5470 C   0  0  0  0  0  0  0  0  0  0  0  0
    2.3880   18.6510   18.7740 H   0  0  0  0  0  0  0  0  0  0  0  0
    2.2690   20.9600   13.7470 H   0  0  0  0  0  0  0  0  0  0  0  0
    4.6760   22.0070   15.9960 H   0  0  0  0  0  0  0  0  0  0  0  0
    0.0720   25.6980   16.2680 H   0  0  0  0  0  0  0  0  0  0  0  0
    3.6940   25.9950   18.2030 H   0  0  0  0  0  0  0  0  0  0  0  0
    6.5070   23.4630   16.4950 H   0  0  0  0  0  0  0  0  0  0  0  0
   -0.5380   20.0250   14.7180 H   0  0  0  0  0  0  0  0  0  0  0  0
   -0.5690   21.4260   17.3850 H   0  0  0  0  0  0  0  0  0  0  0  0
   -2.7800   19.4570   16.4970 H   0  0  0  0  0  0  0  0  0  0  0  0
   -1.3970   19.7590   19.0850 H   0  0  0  0  0  0  0  0  0  0  0  0
    0.8690   17.5370   18.8680 H   0  0  0  0  0  0  0  0  0  0  0  0
   -1.9480   17.3150   20.1430 H   0  0  0  0  0  0  0  0  0  0  0  0
   -2.7000   17.5450   17.6370 H   0  0  0  0  0  0  0  0  0  0  0  0
   -3.1490   16.2440   15.6250 H   0  0  0  0  0  0  0  0  0  0  0  0
   -0.6590   13.0310   17.1540 H   0  0  0  0  0  0  0  0  0  0  0  0
   -0.0750   14.4000   19.0760 H   0  0  0  0  0  0  0  0  0  0  0  0
   -3.1920   15.2250   13.8390 H   0  0  0  0  0  0  0  0  0  0  0  0
   -2.0940   11.8530   14.1070 H   0  0  0  0  0  0  0  0  0  0  0  0
    3.1900   20.0900   22.0820 H   0  0  0  0  0  0  0  0  0  0  0  0
    2.3890   22.4150   22.0530 H   0  0  0  0  0  0  0  0  0  0  0  0
    3.8730   21.8760   20.1960 H   0  0  0  0  0  0  0  0  0  0  0  0
    3.1030   20.9370   18.0570 H   0  0  0  0  0  0  0  0  0  0  0  0
    3.6790   19.2820   19.8630 H   0  0  0  0  0  0  0  0  0  0  0  0
    2.0050   20.0680   15.3240 H   0  0  0  0  0  0  0  0  0  0  0  0
    0.1310   25.0960   17.9670 H   0  0  0  0  0  0  0  0  0  0  0  0
    2.1120   25.5630   18.9500 H   0  0  0  0  0  0  0  0  0  0  0  0
    5.9270   22.5270   17.9780 H   0  0  0  0  0  0  0  0  0  0  0  0
   -2.8520   21.1390   15.9110 H   0  0  0  0  0  0  0  0  0  0  0  0
   -0.5320   16.2140   20.4890 H   0  0  0  0  0  0  0  0  0  0  0  0
   -3.0940   13.6060   13.1220 H   0  0  0  0  0  0  0  0  0  0  0  0
   -1.2700   11.9580   15.6340 H   0  0  0  0  0  0  0  0  0  0  0  0
    1.4740   20.1400   22.7030 H   0  0  0  0  0  0  0  0  0  0  0  0
    0.9150   21.9780   21.0990 H   0  0  0  0  0  0  0  0  0  0  0  0
    2.5520   22.9190   19.5480 H   0  0  0  0  0  0  0  0  0  0  0  0
    1.3890   20.9710   18.5880 H   0  0  0  0  0  0  0  0  0  0  0  0
    6.7440   24.1550   18.1810 H   0  0  0  0  0  0  0  0  0  0  0  0
    3.6700   20.4480   14.7430 H   0  0  0  0  0  0  0  0  0  0  0  0
   -0.8240   24.1920   16.7350 H   0  0  0  0  0  0  0  0  0  0  0  0
    2.1680   26.5820   17.4430 H   0  0  0  0  0  0  0  0  0  0  0  0
  1  8  1  0  0  0  0
  1 44  1  0  0  0  0
  1 66  1  0  0  0  0
  1 79  1  0  0  0  0
  2  4  2  0  0  0  0
  2  8  1  0  0  0  0
  2 12  1  0  0  0  0
  3  6  1  0  0  0  0
  3 11  1  0  0  0  0
  4  5  1  0  0  0  0
  4  9  1  0  0  0  0
  5  6  2  0  0  0  0
  5 10  1  0  0  0  0
  6  7  1  0  0  0  0
  7  8  2  0  0  0  0
  7 45  1  0  0  0  0
  9 46  1  0  0  0  0
  9 67  1  0  0  0  0
  9 80  1  0  0  0  0
 10 47  1  0  0  0  0
 10 68  1  0  0  0  0
 10 81  1  0  0  0  0
 11 48  1  0  0  0  0
 11 69  1  0  0  0  0
 11 78  1  0  0  0  0
 12 13  2  0  0  0  0
 12 14  2  0  0  0  0
 12 15  1  0  0  0  0
 15 16  1  0  0  0  0
 15 49  1  0  0  0  0
 16 17  1  0  0  0  0
 16 21  1  0  0  0  0
 16 50  1  1  0  0  0
 17 18  1  0  0  0  0
 17 51  1  0  0  0  0
 17 70  1  0  0  0  0
 18 19  2  0  0  0  0
 18 20  1  0  0  0  0
 21 22  2  0  0  0  0
 21 23  1  0  0  0  0
 23 24  1  0  0  0  0
 23 52  1  0  0  0  0
 24 25  1  0  0  0  0
 24 27  1  0  0  0  0
 24 53  1  6  0  0  0
 25 26  2  0  0  0  0
 25 37  1  0  0  0  0
 27 28  1  0  0  0  0
 27 54  1  0  0  0  0
 27 71  1  0  0  0  0
 28 29  2  0  0  0  0
 28 33  1  0  0  0  0
 29 30  1  0  0  0  0
 29 55  1  0  0  0  0
 30 31  2  0  0  0  0
 30 56  1  0  0  0  0
 31 32  1  0  0  0  0
 31 34  1  0  0  0  0
 32 33  2  0  0  0  0
 32 57  1  0  0  0  0
 33 58  1  0  0  0  0
 34 35  2  0  0  0  0
 34 36  1  0  0  0  0
 35 59  1  0  0  0  0
 35 72  1  0  0  0  0
 36 60  1  0  0  0  0
 36 73  1  0  0  0  0
 37 38  1  0  0  0  0
 37 42  1  0  0  0  0
 38 39  1  0  0  0  0
 38 61  1  0  0  0  0
 38 74  1  0  0  0  0
 39 40  1  0  0  0  0
 39 62  1  0  0  0  0
 39 75  1  0  0  0  0
 40 41  1  0  0  0  0
 40 63  1  0  0  0  0
 40 76  1  0  0  0  0
 41 42  1  0  0  0  0
 41 64  1  0  0  0  0
 41 77  1  0  0  0  0
 42 43  1  0  0  0  0
 42 65  1  0  0  0  0
M  CHG  2  20  -1  35   1
M  END
>  <deltaG_kcalmol>
-9.31

>  <charge>
0

>  <lm5_entropy_jk>
45.06683044899119

>  <number_of_rotatable_bonds>
14

$$$$
