3R8U
 OpenBabel11252210453D

 37 39  0  0  1  0  0  0  0  0999 V2000
   63.9020  154.4710  -48.3010 N   0  0  0  0  0  0  0  0  0  0  0  0
   65.6020  154.1240  -49.8710 N   0  0  0  0  0  0  0  0  0  0  0  0
   67.4160  153.4900  -51.1550 N   0  0  0  0  0  0  0  0  0  0  0  0
   61.7090  153.8720  -45.5080 C   0  0  0  0  0  0  0  0  0  0  0  0
   62.1610  154.6100  -46.5300 C   0  0  0  0  0  0  0  0  0  0  0  0
   63.6220  154.7170  -46.8610 C   0  0  0  0  0  0  0  0  0  0  0  0
   65.0290  153.8200  -48.7220 C   0  0  0  0  0  0  0  0  0  0  0  0
   67.0850  152.5740  -48.9630 C   0  0  0  0  0  0  0  0  0  0  0  0
   66.7490  153.3860  -50.0030 C   0  0  0  0  0  0  0  0  0  0  0  0
   68.2720  151.7110  -48.9240 C   0  0  0  0  0  0  0  0  0  0  0  0
   68.4850  150.8560  -47.6910 C   0  0  0  0  0  0  0  0  0  0  0  0
   68.2750  151.3610  -46.3850 C   0  0  0  0  0  0  0  0  0  0  0  0
   68.3540  150.5180  -45.2650 C   0  0  0  0  0  0  0  0  0  0  0  0
   68.7080  149.1670  -45.4340 C   0  0  0  0  0  0  0  0  0  0  0  0
   69.0050  148.6790  -46.7120 C   0  0  0  0  0  0  0  0  0  0  0  0
   68.8900  149.5130  -47.8390 C   0  0  0  0  0  0  0  0  0  0  0  0
   68.0420  151.0040  -43.9830 C   0  0  0  0  0  0  0  0  0  0  0  0
   68.0580  150.1340  -42.8790 C   0  0  0  0  0  0  0  0  0  0  0  0
   68.4050  148.7840  -43.0500 C   0  0  0  0  0  0  0  0  0  0  0  0
   68.7420  148.3040  -44.3270 C   0  0  0  0  0  0  0  0  0  0  0  0
   69.0510  151.6610  -49.8610 O   0  0  0  0  0  0  0  0  0  0  0  0
   65.8040  152.5690  -47.7830 S   0  0  0  0  0  0  0  0  0  0  0  0
   63.9740  155.7190  -46.5730 H   0  0  0  0  0  0  0  0  0  0  0  0
   64.1610  153.9990  -46.2280 H   0  0  0  0  0  0  0  0  0  0  0  0
   63.4850  155.0760  -49.0100 H   0  0  0  0  0  0  0  0  0  0  0  0
   66.9580  153.9110  -51.9480 H   0  0  0  0  0  0  0  0  0  0  0  0
   68.1860  152.8420  -51.2580 H   0  0  0  0  0  0  0  0  0  0  0  0
   68.0040  152.4030  -46.2420 H   0  0  0  0  0  0  0  0  0  0  0  0
   69.2860  147.6370  -46.8240 H   0  0  0  0  0  0  0  0  0  0  0  0
   69.0850  149.1130  -48.8340 H   0  0  0  0  0  0  0  0  0  0  0  0
   67.7550  152.0440  -43.8450 H   0  0  0  0  0  0  0  0  0  0  0  0
   67.7880  150.4990  -41.8890 H   0  0  0  0  0  0  0  0  0  0  0  0
   68.4150  148.1140  -42.1890 H   0  0  0  0  0  0  0  0  0  0  0  0
   68.9970  147.2540  -44.4630 H   0  0  0  0  0  0  0  0  0  0  0  0
   60.6610  153.8660  -45.2170 H   0  0  0  0  0  0  0  0  0  0  0  0
   62.3760  153.2670  -44.8920 H   0  0  0  0  0  0  0  0  0  0  0  0
   61.4980  155.2400  -47.1210 H   0  0  0  0  0  0  0  0  0  0  0  0
  1  6  1  0  0  0  0
  1  7  1  0  0  0  0
  1 25  1  0  0  0  0
  2  7  2  0  0  0  0
  2  9  1  0  0  0  0
  3  9  1  0  0  0  0
  3 26  1  0  0  0  0
  3 27  1  0  0  0  0
  4  5  2  0  0  0  0
  4 35  1  0  0  0  0
  4 36  1  0  0  0  0
  5  6  1  0  0  0  0
  5 37  1  0  0  0  0
  6 23  1  0  0  0  0
  6 24  1  0  0  0  0
  7 22  1  0  0  0  0
  8  9  2  0  0  0  0
  8 22  1  0  0  0  0
 10  8  1  0  0  0  0
 10 11  1  0  0  0  0
 10 21  2  0  0  0  0
 11 12  2  0  0  0  0
 11 16  1  0  0  0  0
 12 13  1  0  0  0  0
 12 28  1  0  0  0  0
 13 14  2  0  0  0  0
 13 17  1  0  0  0  0
 14 15  1  0  0  0  0
 14 20  1  0  0  0  0
 15 16  2  0  0  0  0
 15 29  1  0  0  0  0
 16 30  1  0  0  0  0
 17 18  2  0  0  0  0
 17 31  1  0  0  0  0
 18 19  1  0  0  0  0
 18 32  1  0  0  0  0
 19 20  2  0  0  0  0
 19 33  1  0  0  0  0
 20 34  1  0  0  0  0
M  END
>  <lm5_entropy_jk>
31.97375871552738

>  <number_of_rotatable_bonds>
5

>  <IC50_NM>
5000

>  <charge>
0

$$$$
