model24
 OpenBabel11252210453D

 76 77  0  0  1  0  0  0  0  0999 V2000
   13.1790   14.5850    8.0090 C   0  0  0  0  0  0  0  0  0  0  0  0
   11.1870   17.9020    7.5760 C   0  0  1  0  0  0  0  0  0  0  0  0
   14.0980   14.2170    6.9770 N   0  0  0  0  0  0  0  0  0  0  0  0
    8.2770   18.4670    8.9540 N   0  0  0  0  0  0  0  0  0  0  0  0
   12.1360   18.6850    6.8240 O   0  0  0  0  0  0  0  0  0  0  0  0
   13.3550   12.0190    8.2410 S   0  0  0  0  0  0  0  0  0  0  0  0
   12.7180   13.5440    8.7720 C   0  0  0  0  0  0  0  0  0  0  0  0
    9.8110   18.3160    7.0140 C   0  0  0  0  0  0  0  0  0  0  0  0
    4.7610   17.4990    9.5940 N   0  0  0  0  0  0  0  0  0  0  0  0
    5.6170   19.3430    8.5330 O   0  0  0  0  0  0  0  0  0  0  0  0
    8.6760   17.7250    7.8270 C   0  0  0  0  0  0  0  0  0  0  0  0
   11.6170   16.0740    5.9430 N   0  0  0  0  0  0  0  0  0  0  0  0
    8.1670   16.6440    7.5820 O   0  0  0  0  0  0  0  0  0  0  0  0
   14.2920   12.9150    6.9810 C   0  0  0  0  0  0  0  0  0  0  0  0
    7.1850   17.9910    9.8290 C   0  0  1  0  0  0  0  0  0  0  0  0
   10.3850   14.1270    6.0070 O   0  0  0  0  0  0  0  0  0  0  0  0
    7.3570   18.5280   11.2800 C   0  0  0  0  0  0  0  0  0  0  0  0
    6.5320   17.6920   12.2680 C   0  0  0  0  0  0  0  0  0  0  0  0
    7.0290   20.0170   11.4040 C   0  0  0  0  0  0  0  0  0  0  0  0
    5.8070   18.3550    9.2240 C   0  0  0  0  0  0  0  0  0  0  0  0
    3.4810   17.4650    8.8410 C   0  0  0  0  0  0  0  0  0  0  0  0
    3.4320   16.3000    7.8320 C   0  0  0  0  0  0  0  0  0  0  0  0
    4.4510   16.4160    6.6900 C   0  0  0  0  0  0  0  0  0  0  0  0
    4.0320   17.4200    5.6030 C   0  0  0  0  0  0  0  0  0  0  0  0
    5.2100   17.9470    4.7640 C   0  0  0  0  0  0  0  0  0  0  0  0
    6.1270   16.8350    4.2330 C   0  0  0  0  0  0  0  0  0  0  0  0
    6.9780   17.3090    3.0450 C   0  0  0  0  0  0  0  0  0  0  0  0
    7.9500   16.2260    2.5470 C   0  0  0  0  0  0  0  0  0  0  0  0
    9.2150   16.1260    3.4090 C   0  0  0  0  0  0  0  0  0  0  0  0
   10.0280   14.8660    3.0750 C   0  0  0  0  0  0  0  0  0  0  0  0
   11.3380   14.7890    3.8740 C   0  0  0  0  0  0  0  0  0  0  0  0
   11.5100   16.3810    7.3790 C   0  0  1  0  0  0  0  0  0  0  0  0
   11.0640   14.9130    5.3640 C   0  0  0  0  0  0  0  0  0  0  0  0
   12.8090   16.0230    8.1570 C   0  0  0  0  0  0  0  0  0  0  0  0
    8.5740   19.4490    9.0650 H   0  0  0  0  0  0  0  0  0  0  0  0
   11.2720   18.1700    8.6570 H   0  0  0  0  0  0  0  0  0  0  0  0
   12.7910   19.1220    7.4850 H   0  0  0  0  0  0  0  0  0  0  0  0
    9.7160   17.9560    5.9550 H   0  0  0  0  0  0  0  0  0  0  0  0
    4.9970   16.5870   10.0300 H   0  0  0  0  0  0  0  0  0  0  0  0
   12.4080   16.5450    5.4730 H   0  0  0  0  0  0  0  0  0  0  0  0
    7.2620   16.8710    9.8870 H   0  0  0  0  0  0  0  0  0  0  0  0
    8.4310   18.3580   11.5430 H   0  0  0  0  0  0  0  0  0  0  0  0
   12.0730   13.6160    9.6340 H   0  0  0  0  0  0  0  0  0  0  0  0
   12.6500   16.2680    9.2400 H   0  0  0  0  0  0  0  0  0  0  0  0
   13.6400   16.6780    7.7910 H   0  0  0  0  0  0  0  0  0  0  0  0
   14.9520   12.3650    6.3120 H   0  0  0  0  0  0  0  0  0  0  0  0
    6.8100   17.9660   13.3110 H   0  0  0  0  0  0  0  0  0  0  0  0
    7.6140   20.6100   10.6710 H   0  0  0  0  0  0  0  0  0  0  0  0
    3.3280   18.4420    8.3170 H   0  0  0  0  0  0  0  0  0  0  0  0
    2.3970   16.2540    7.4120 H   0  0  0  0  0  0  0  0  0  0  0  0
    4.5610   15.4100    6.2230 H   0  0  0  0  0  0  0  0  0  0  0  0
    3.5380   18.3010    6.0760 H   0  0  0  0  0  0  0  0  0  0  0  0
    5.8140   18.6470    5.3850 H   0  0  0  0  0  0  0  0  0  0  0  0
    5.5090   15.9710    3.9010 H   0  0  0  0  0  0  0  0  0  0  0  0
    7.5510   18.2200    3.3310 H   0  0  0  0  0  0  0  0  0  0  0  0
    8.2460   16.4710    1.4990 H   0  0  0  0  0  0  0  0  0  0  0  0
    8.9260   16.1090    4.4850 H   0  0  0  0  0  0  0  0  0  0  0  0
   10.2880   14.8740    1.9880 H   0  0  0  0  0  0  0  0  0  0  0  0
   12.0230   15.5960    3.5150 H   0  0  0  0  0  0  0  0  0  0  0  0
   10.6610   15.7890    7.8160 H   0  0  0  0  0  0  0  0  0  0  0  0
    9.7570   19.4310    6.9970 H   0  0  0  0  0  0  0  0  0  0  0  0
    6.7300   16.6090   12.1170 H   0  0  0  0  0  0  0  0  0  0  0  0
    7.2530   20.3730   12.4340 H   0  0  0  0  0  0  0  0  0  0  0  0
    2.6640   17.3240    9.6020 H   0  0  0  0  0  0  0  0  0  0  0  0
    3.6180   15.3440    8.3810 H   0  0  0  0  0  0  0  0  0  0  0  0
    5.4440   16.7100    7.1040 H   0  0  0  0  0  0  0  0  0  0  0  0
    3.2930   16.9310    4.9260 H   0  0  0  0  0  0  0  0  0  0  0  0
    4.7870   18.5190    3.9040 H   0  0  0  0  0  0  0  0  0  0  0  0
    6.8000   16.5030    5.0560 H   0  0  0  0  0  0  0  0  0  0  0  0
    6.2980   17.5690    2.2030 H   0  0  0  0  0  0  0  0  0  0  0  0
    7.4240   15.2460    2.5360 H   0  0  0  0  0  0  0  0  0  0  0  0
    9.8490   17.0250    3.2290 H   0  0  0  0  0  0  0  0  0  0  0  0
    9.4230   13.9550    3.2850 H   0  0  0  0  0  0  0  0  0  0  0  0
   11.8310   13.8060    3.6730 H   0  0  0  0  0  0  0  0  0  0  0  0
    5.9450   20.1940   11.2170 H   0  0  0  0  0  0  0  0  0  0  0  0
    5.4410   17.8780   12.1480 H   0  0  0  0  0  0  0  0  0  0  0  0
  1 34  1  0  0  0  0
  1  7  2  0  0  0  0
  2 36  1  1  0  0  0
  2 32  1  0  0  0  0
  3 14  2  0  0  0  0
  3  1  1  0  0  0  0
  4 35  1  0  0  0  0
  4 15  1  0  0  0  0
  5 37  1  0  0  0  0
  5  2  1  0  0  0  0
  6  7  1  0  0  0  0
  7 43  1  0  0  0  0
  8  2  1  0  0  0  0
  8 11  1  0  0  0  0
  9 39  1  0  0  0  0
 10 20  2  0  0  0  0
 11  4  1  0  0  0  0
 12 32  1  0  0  0  0
 13 11  2  0  0  0  0
 14  6  1  0  0  0  0
 15 41  1  1  0  0  0
 15 17  1  0  0  0  0
 17 42  1  0  0  0  0
 17 18  1  0  0  0  0
 18 62  1  0  0  0  0
 18 47  1  0  0  0  0
 19 17  1  0  0  0  0
 19 63  1  0  0  0  0
 20  9  1  0  0  0  0
 20 15  1  0  0  0  0
 21  9  1  0  0  0  0
 21 64  1  0  0  0  0
 22 65  1  0  0  0  0
 22 21  1  0  0  0  0
 23 66  1  0  0  0  0
 23 22  1  0  0  0  0
 24 52  1  0  0  0  0
 24 23  1  0  0  0  0
 25 53  1  0  0  0  0
 25 24  1  0  0  0  0
 26 25  1  0  0  0  0
 26 69  1  0  0  0  0
 27 55  1  0  0  0  0
 27 26  1  0  0  0  0
 28 27  1  0  0  0  0
 28 29  1  0  0  0  0
 29 57  1  0  0  0  0
 30 29  1  0  0  0  0
 30 73  1  0  0  0  0
 30 31  1  0  0  0  0
 31 33  1  0  0  0  0
 32 60  1  1  0  0  0
 32 34  1  0  0  0  0
 33 12  1  0  0  0  0
 33 16  2  0  0  0  0
 34 44  1  0  0  0  0
 38  8  1  0  0  0  0
 40 12  1  0  0  0  0
 45 34  1  0  0  0  0
 46 14  1  0  0  0  0
 48 19  1  0  0  0  0
 49 21  1  0  0  0  0
 50 22  1  0  0  0  0
 51 23  1  0  0  0  0
 54 26  1  0  0  0  0
 56 28  1  0  0  0  0
 58 30  1  0  0  0  0
 59 31  1  0  0  0  0
 61  8  1  0  0  0  0
 67 24  1  0  0  0  0
 68 25  1  0  0  0  0
 70 27  1  0  0  0  0
 71 28  1  0  0  0  0
 72 29  1  0  0  0  0
 74 31  1  0  0  0  0
 75 19  1  0  0  0  0
 76 18  1  0  0  0  0
M  END
>  <IC50_NM>
600

>  <number_of_rotatable_bonds>
3

>  <charge>
0

>  <lm5_entropy_jk>
30.51387600249522

$$$$
