2IKH
 OpenBabel11252210453D

 22 23  0  0  0  0  0  0  0  0999 V2000
   16.8150   -4.3130   10.8380 C   0  0  0  0  0  0  0  0  0  0  0  0
   15.4600   -4.5640   10.7240 C   0  0  0  0  0  0  0  0  0  0  0  0
   15.1260   -5.4470   11.7950 C   0  0  0  0  0  0  0  0  0  0  0  0
   16.2860   -5.6610   12.5220 C   0  0  0  0  0  0  0  0  0  0  0  0
   16.6640   -6.2790   13.7590 C   0  0  0  0  0  0  0  0  0  0  0  0
   17.8160   -6.1530   14.4580 N   0  0  0  0  0  0  0  0  0  0  0  0
   17.7100   -6.8500   15.5870 N   0  0  0  0  0  0  0  0  0  0  0  0
   16.4730   -7.4160   15.6490 C   0  0  0  0  0  0  0  0  0  0  0  0
   15.7820   -8.4750   16.8870 S   0  0  0  0  0  0  0  0  0  0  0  0
   16.1890   -7.5390   18.3700 C   0  0  0  0  0  0  0  0  0  0  0  0
   15.5880   -6.0920   18.2650 C   0  0  0  0  0  0  0  0  0  0  0  0
   15.1410   -5.5730   19.2990 O   0  5  0  0  0  0  0  0  0  0  0  0
   15.5910   -5.5970   17.1210 O   0  0  0  0  0  0  0  0  0  0  0  0
   15.7590   -7.0880   14.4820 O   0  0  0  0  0  0  0  0  0  0  0  0
   17.3730   -5.0020   11.9280 O   0  0  0  0  0  0  0  0  0  0  0  0
   17.7740   -3.4890   10.1400 N   0  3  0  0  0  0  0  0  0  0  0  0
   17.3390   -2.6510    9.3610 O   0  5  0  0  0  0  0  0  0  0  0  0
   18.9600   -3.6890   10.3530 O   0  0  0  0  0  0  0  0  0  0  0  0
   15.7840   -8.1380   19.2210 H   0  0  0  0  0  0  0  0  0  0  0  0
   17.2960   -7.4920   18.5210 H   0  0  0  0  0  0  0  0  0  0  0  0
   14.1310   -5.8210   11.9840 H   0  0  0  0  0  0  0  0  0  0  0  0
   14.7700   -4.1630    9.9960 H   0  0  0  0  0  0  0  0  0  0  0  0
  1  2  2  0  0  0  0
  1 15  1  0  0  0  0
  2  3  1  0  0  0  0
  3 21  1  0  0  0  0
  3  4  2  0  0  0  0
  4  5  1  0  0  0  0
  5  6  2  0  0  0  0
  5 14  1  0  0  0  0
  6  7  1  0  0  0  0
  7  8  2  0  0  0  0
  8  9  1  0  0  0  0
  9 10  1  0  0  0  0
 10 19  1  0  0  0  0
 11 10  1  0  0  0  0
 11 12  1  0  0  0  0
 13 11  2  0  0  0  0
 14  8  1  0  0  0  0
 15  4  1  0  0  0  0
 16 18  2  0  0  0  0
 16  1  1  0  0  0  0
 17 16  1  0  0  0  0
 20 10  1  0  0  0  0
 22  2  1  0  0  0  0
M  CHG  3  12  -1  16   1  17  -1
M  END
>  <lm5_entropy_jk>
25.077845360290652

>  <number_of_rotatable_bonds>
5

>  <deltaG_kcalmol>
-7.48

>  <charge>
-1

$$$$
