1J91
 OpenBabel11252210453D

 14 15  0  0  1  0  0  0  0  0999 V2000
   21.9640    8.2430   19.3330 C   0  0  0  0  0  0  0  0  0  0  0  0
   24.2840    7.7420   15.4350 N   0  0  0  0  0  0  0  0  0  0  0  0
   22.6510    7.0170   19.6040 C   0  0  0  0  0  0  0  0  0  0  0  0
   23.4660    6.4190   18.6560 C   0  0  0  0  0  0  0  0  0  0  0  0
   22.1470    8.9230   18.1420 C   0  0  0  0  0  0  0  0  0  0  0  0
   23.4520    8.7360   15.9170 N   0  0  0  0  0  0  0  0  0  0  0  0
   23.0190    8.3590   17.1920 C   0  0  0  0  0  0  0  0  0  0  0  0
   23.6540    7.0900   17.4330 C   0  0  0  0  0  0  0  0  0  0  0  0
   24.4090    6.7790   16.2790 N   0  0  0  0  0  0  0  0  0  0  0  0
   21.3490   10.5680   17.6770 Br  0  0  0  0  0  0  0  0  0  0  0  0
   20.7680    8.9260   20.6370 Br  0  0  0  0  0  0  0  0  0  0  0  0
   22.4640    6.2150   21.3120 Br  0  0  0  0  0  0  0  0  0  0  0  0
   24.3060    4.7480   18.8800 Br  0  0  0  0  0  0  0  0  0  0  0  0
   23.3060    9.6270   15.4280 H   0  0  0  0  0  0  0  0  0  0  0  0
  1  3  2  0  0  0  0
  1  5  1  0  0  0  0
  1 11  1  0  0  0  0
  3  4  1  0  0  0  0
  3 12  1  0  0  0  0
  4  8  2  0  0  0  0
  4 13  1  0  0  0  0
  5  7  2  0  0  0  0
  5 10  1  0  0  0  0
  6  2  1  0  0  0  0
  6  7  1  0  0  0  0
  6 14  1  0  0  0  0
  7  8  1  0  0  0  0
  8  9  1  0  0  0  0
  9  2  2  0  0  0  0
M  END
>  <charge>
0

>  <Ki_NM>
400

>  <number_of_rotatable_bonds>
0

>  <lm5_entropy_jk>
7.2278

$$$$
