3QTZ
 OpenBabel11252210453D

 39 41  0  0  0  0  0  0  0  0999 V2000
   65.9840  154.3380  -50.4750 N   0  0  0  0  0  0  0  0  0  0  0  0
   64.5520  154.7920  -48.6440 N   0  0  0  0  0  0  0  0  0  0  0  0
   67.5750  153.4850  -52.0570 N   0  0  0  0  0  0  0  0  0  0  0  0
   62.0460  152.8360  -42.7000 N   0  0  0  0  0  0  0  0  0  0  0  0
   67.6060  152.7040  -49.7430 C   0  0  0  0  0  0  0  0  0  0  0  0
   67.1010  153.5070  -50.7880 C   0  0  0  0  0  0  0  0  0  0  0  0
   65.6250  154.1150  -49.1910 C   0  0  0  0  0  0  0  0  0  0  0  0
   63.8540  154.5000  -47.4350 C   0  0  0  0  0  0  0  0  0  0  0  0
   68.6190  151.6970  -49.8360 C   0  0  0  0  0  0  0  0  0  0  0  0
   68.7920  150.7840  -48.6490 C   0  0  0  0  0  0  0  0  0  0  0  0
   67.7090  150.0340  -48.1720 C   0  0  0  0  0  0  0  0  0  0  0  0
   67.8780  149.1540  -47.0980 C   0  0  0  0  0  0  0  0  0  0  0  0
   69.1330  148.9900  -46.5060 C   0  0  0  0  0  0  0  0  0  0  0  0
   70.1910  149.7470  -47.0080 C   0  0  0  0  0  0  0  0  0  0  0  0
   70.0560  150.6570  -48.0630 C   0  0  0  0  0  0  0  0  0  0  0  0
   62.9090  155.4730  -47.0320 C   0  0  0  0  0  0  0  0  0  0  0  0
   62.1490  155.2760  -45.8870 C   0  0  0  0  0  0  0  0  0  0  0  0
   62.3150  154.1130  -45.1190 C   0  0  0  0  0  0  0  0  0  0  0  0
   63.2710  153.1680  -45.5040 C   0  0  0  0  0  0  0  0  0  0  0  0
   64.0290  153.3400  -46.6660 C   0  0  0  0  0  0  0  0  0  0  0  0
   69.3160  151.5420  -50.8320 O   0  0  0  0  0  0  0  0  0  0  0  0
   60.1010  153.0680  -44.4270 O   0  0  0  0  0  0  0  0  0  0  0  0
   60.8590  155.0210  -43.0930 O   0  0  0  0  0  0  0  0  0  0  0  0
   66.7040  152.9460  -48.2900 S   0  0  0  0  0  0  0  0  0  0  0  0
   61.2190  153.8000  -43.8280 S   0  0  0  0  0  0  0  0  0  0  0  0
   71.3930  149.5990  -46.4480 F   0  0  0  0  0  0  0  0  0  0  0  0
   63.9960  155.4010  -49.3000 H   0  0  0  0  0  0  0  0  0  0  0  0
   67.1770  154.1010  -52.7930 H   0  0  0  0  0  0  0  0  0  0  0  0
   68.3970  152.9110  -52.2800 H   0  0  0  0  0  0  0  0  0  0  0  0
   62.1540  151.8140  -42.9570 H   0  0  0  0  0  0  0  0  0  0  0  0
   61.8840  152.9530  -41.6910 H   0  0  0  0  0  0  0  0  0  0  0  0
   66.7180  150.1200  -48.6200 H   0  0  0  0  0  0  0  0  0  0  0  0
   67.0230  148.5950  -46.7080 H   0  0  0  0  0  0  0  0  0  0  0  0
   69.2580  148.2850  -45.6800 H   0  0  0  0  0  0  0  0  0  0  0  0
   70.8970  151.2570  -48.4170 H   0  0  0  0  0  0  0  0  0  0  0  0
   62.7530  156.3710  -47.6330 H   0  0  0  0  0  0  0  0  0  0  0  0
   61.4180  156.0470  -45.6110 H   0  0  0  0  0  0  0  0  0  0  0  0
   63.4550  152.2660  -44.9090 H   0  0  0  0  0  0  0  0  0  0  0  0
   64.7140  152.5400  -46.9470 H   0  0  0  0  0  0  0  0  0  0  0  0
  1  7  2  0  0  0  0
  2  8  1  0  0  0  0
  2 27  1  0  0  0  0
  3  6  1  0  0  0  0
  3 28  1  0  0  0  0
  3 29  1  0  0  0  0
  4 30  1  0  0  0  0
  4 31  1  0  0  0  0
  5 24  1  0  0  0  0
  6  1  1  0  0  0  0
  6  5  2  0  0  0  0
  7  2  1  0  0  0  0
  7 24  1  0  0  0  0
  8 16  2  0  0  0  0
  8 20  1  0  0  0  0
  9  5  1  0  0  0  0
  9 10  1  0  0  0  0
 10 15  2  0  0  0  0
 10 11  1  0  0  0  0
 11 12  2  0  0  0  0
 11 32  1  0  0  0  0
 12 13  1  0  0  0  0
 12 33  1  0  0  0  0
 13 34  1  0  0  0  0
 14 26  1  0  0  0  0
 14 13  2  0  0  0  0
 15 14  1  0  0  0  0
 15 35  1  0  0  0  0
 16 17  1  0  0  0  0
 16 36  1  0  0  0  0
 17 18  2  0  0  0  0
 17 37  1  0  0  0  0
 18 25  1  0  0  0  0
 19 18  1  0  0  0  0
 19 38  1  0  0  0  0
 20 19  2  0  0  0  0
 20 39  1  0  0  0  0
 21  9  2  0  0  0  0
 22 25  2  0  0  0  0
 25 23  2  0  0  0  0
 25  4  1  0  0  0  0
M  END
>  <lm5_entropy_jk>
22.397995528352578

>  <number_of_rotatable_bonds>
5

>  <IC50_NM>
50

>  <charge>
0

$$$$
