1HXW_align_H.pdb
 OpenBabel11252210453D

 98101  0  0  1  0  0  0  0  0999 V2000
    0.5810    2.8550   11.5870 C   0  0  0  0  0  0  0  0  0  0  0  0
    1.6530    2.0020   11.5560 C   0  0  0  0  0  0  0  0  0  0  0  0
    3.0440    2.7690   10.8220 S   0  0  0  0  0  0  0  0  0  0  0  0
    2.0230    4.2380   10.5710 C   0  0  0  0  0  0  0  0  0  0  0  0
    0.7900    4.1420   11.0300 N   0  0  0  0  0  0  0  0  0  0  0  0
    1.7400    0.6070   12.0510 C   0  0  0  0  0  0  0  0  0  0  0  0
    2.7020    0.6610   13.1450 O   0  0  0  0  0  0  0  0  0  0  0  0
    3.7300   -0.2850   13.1860 C   0  0  0  0  0  0  0  0  0  0  0  0
    4.7630    0.2780   13.9160 N   0  0  0  0  0  0  0  0  0  0  0  0
    5.8130   -0.5740   14.5280 C   0  0  2  0  0  0  0  0  0  0  0  0
    5.5330   -0.7260   16.0540 C   0  0  2  0  0  0  0  0  0  0  0  0
    4.2980   -1.5400   16.4400 C   0  0  0  0  0  0  0  0  0  0  0  0
    4.3670   -3.0600   16.2210 C   0  0  2  0  0  0  0  0  0  0  0  0
    6.5310   -4.2950   15.9500 C   0  0  0  0  0  0  0  0  0  0  0  0
    7.6480   -5.0300   16.7280 C   0  0  1  0  0  0  0  0  0  0  0  0
    7.0820   -6.3610   17.0560 N   0  0  0  0  0  0  0  0  0  0  0  0
    7.1310   -6.8090   18.4000 C   0  0  0  0  0  0  0  0  0  0  0  0
    3.6970   -1.3600   12.6240 O   0  0  0  0  0  0  0  0  0  0  0  0
    7.1900    0.1020   14.2910 C   0  0  0  0  0  0  0  0  0  0  0  0
    7.3910    0.4840   12.8490 C   0  0  0  0  0  0  0  0  0  0  0  0
    7.8830   -0.4520   11.9270 C   0  0  0  0  0  0  0  0  0  0  0  0
    8.0220   -0.1010   10.5810 C   0  0  0  0  0  0  0  0  0  0  0  0
    7.6710    1.1790   10.1440 C   0  0  0  0  0  0  0  0  0  0  0  0
    7.2020    2.1210   11.0640 C   0  0  0  0  0  0  0  0  0  0  0  0
    7.0660    1.7790   12.4120 C   0  0  0  0  0  0  0  0  0  0  0  0
    5.2340    0.6100   16.5550 O   0  0  0  0  0  0  0  0  0  0  0  0
    3.1620   -3.7300   16.9310 C   0  0  0  0  0  0  0  0  0  0  0  0
    2.9540   -5.1290   16.4280 C   0  0  0  0  0  0  0  0  0  0  0  0
    3.4730   -6.2270   17.1300 C   0  0  0  0  0  0  0  0  0  0  0  0
    3.2380   -7.5230   16.6700 C   0  0  0  0  0  0  0  0  0  0  0  0
    2.5100   -7.7390   15.4980 C   0  0  0  0  0  0  0  0  0  0  0  0
    2.0400   -6.6420   14.7710 C   0  0  0  0  0  0  0  0  0  0  0  0
    2.2500   -5.3430   15.2340 C   0  0  0  0  0  0  0  0  0  0  0  0
    5.6330   -3.6090   16.7690 N   0  0  0  0  0  0  0  0  0  0  0  0
    6.4250   -4.2270   14.7340 O   0  0  0  0  0  0  0  0  0  0  0  0
    8.9760   -5.1210   15.9270 C   0  0  0  0  0  0  0  0  0  0  0  0
    9.4120   -3.7300   15.4490 C   0  0  0  0  0  0  0  0  0  0  0  0
   10.0550   -5.7530   16.8190 C   0  0  0  0  0  0  0  0  0  0  0  0
    6.8450   -8.1750   18.6920 N   0  0  0  0  0  0  0  0  0  0  0  0
    6.2200   -8.4320   20.0150 C   0  0  0  0  0  0  0  0  0  0  0  0
    7.4430   -6.0450   19.3130 O   0  0  0  0  0  0  0  0  0  0  0  0
    4.7210   -8.2840   20.0630 C   0  0  0  0  0  0  0  0  0  0  0  0
    4.0460   -7.2160   20.5890 C   0  0  0  0  0  0  0  0  0  0  0  0
    2.3230   -7.4510   20.5070 S   0  0  0  0  0  0  0  0  0  0  0  0
    2.6370   -9.0580   19.6910 C   0  0  0  0  0  0  0  0  0  0  0  0
    3.9150   -9.3460   19.5570 N   0  0  0  0  0  0  0  0  0  0  0  0
    1.4520   -9.8340   19.2080 C   0  0  0  0  0  0  0  0  0  0  0  0
    0.4420  -10.0510   20.3420 C   0  0  0  0  0  0  0  0  0  0  0  0
    1.8690  -11.1680   18.5720 C   0  0  0  0  0  0  0  0  0  0  0  0
    6.5080   -9.1220   17.6040 C   0  0  0  0  0  0  0  0  0  0  0  0
   -0.4130    2.6230   11.9730 H   0  0  0  0  0  0  0  0  0  0  0  0
    2.4570    5.0950   10.0610 H   0  0  0  0  0  0  0  0  0  0  0  0
    2.0740   -0.1080   11.2570 H   0  0  0  0  0  0  0  0  0  0  0  0
    0.7840    0.2700   12.5250 H   0  0  0  0  0  0  0  0  0  0  0  0
    4.5960    1.1580   14.4260 H   0  0  0  0  0  0  0  0  0  0  0  0
    5.8310   -1.5920   14.0560 H   0  0  0  0  0  0  0  0  0  0  0  0
    6.4420   -1.1070   16.5790 H   0  0  0  0  0  0  0  0  0  0  0  0
    3.3960   -1.1530   15.9150 H   0  0  0  0  0  0  0  0  0  0  0  0
    4.1580   -1.3680   17.5400 H   0  0  0  0  0  0  0  0  0  0  0  0
    4.3280   -3.2870   15.1210 H   0  0  0  0  0  0  0  0  0  0  0  0
    7.8560   -4.4740   17.6850 H   0  0  0  0  0  0  0  0  0  0  0  0
    7.1040   -7.0400   16.2720 H   0  0  0  0  0  0  0  0  0  0  0  0
    7.9890   -0.6010   14.6360 H   0  0  0  0  0  0  0  0  0  0  0  0
    7.2760    1.0120   14.9410 H   0  0  0  0  0  0  0  0  0  0  0  0
    8.1700   -1.4480   12.2630 H   0  0  0  0  0  0  0  0  0  0  0  0
    8.4080   -0.8290    9.8700 H   0  0  0  0  0  0  0  0  0  0  0  0
    7.7660    1.4490    9.0900 H   0  0  0  0  0  0  0  0  0  0  0  0
    6.9460    3.1310   10.7300 H   0  0  0  0  0  0  0  0  0  0  0  0
    6.7080    2.5270   13.1240 H   0  0  0  0  0  0  0  0  0  0  0  0
    6.1000    0.9030   17.0250 H   0  0  0  0  0  0  0  0  0  0  0  0
    2.2420   -3.1200   16.7620 H   0  0  0  0  0  0  0  0  0  0  0  0
    3.3380   -3.7430   18.0390 H   0  0  0  0  0  0  0  0  0  0  0  0
    4.0680   -6.0640   18.0280 H   0  0  0  0  0  0  0  0  0  0  0  0
    3.6280   -8.3800   17.2180 H   0  0  0  0  0  0  0  0  0  0  0  0
    2.3480   -8.7580   15.1510 H   0  0  0  0  0  0  0  0  0  0  0  0
    1.5360   -6.7910   13.8250 H   0  0  0  0  0  0  0  0  0  0  0  0
    1.8670   -4.4940   14.6730 H   0  0  0  0  0  0  0  0  0  0  0  0
    5.6730   -3.6750   17.7990 H   0  0  0  0  0  0  0  0  0  0  0  0
    8.8130   -5.7780   15.0350 H   0  0  0  0  0  0  0  0  0  0  0  0
   10.3800   -3.8110   14.9080 H   0  0  0  0  0  0  0  0  0  0  0  0
    8.6520   -3.3020   14.7580 H   0  0  0  0  0  0  0  0  0  0  0  0
    9.5500   -3.0440   16.3120 H   0  0  0  0  0  0  0  0  0  0  0  0
   11.0310   -5.7330   16.2980 H   0  0  0  0  0  0  0  0  0  0  0  0
   10.1570   -5.1880   17.7710 H   0  0  0  0  0  0  0  0  0  0  0  0
    9.8000   -6.8110   17.0480 H   0  0  0  0  0  0  0  0  0  0  0  0
    6.6610   -7.6900   20.7340 H   0  0  0  0  0  0  0  0  0  0  0  0
    6.5110   -9.4740   20.3310 H   0  0  0  0  0  0  0  0  0  0  0  0
    4.4720   -6.3180   21.0180 H   0  0  0  0  0  0  0  0  0  0  0  0
    0.9630   -9.2180   18.3970 H   0  0  0  0  0  0  0  0  0  0  0  0
   -0.4170  -10.6570   19.9620 H   0  0  0  0  0  0  0  0  0  0  0  0
    0.9080  -10.6080   21.1860 H   0  0  0  0  0  0  0  0  0  0  0  0
    0.0380   -9.0870   20.7210 H   0  0  0  0  0  0  0  0  0  0  0  0
    2.3550  -11.8360   19.3200 H   0  0  0  0  0  0  0  0  0  0  0  0
    0.9720  -11.6880   18.1630 H   0  0  0  0  0  0  0  0  0  0  0  0
    2.5880  -10.9940   17.7370 H   0  0  0  0  0  0  0  0  0  0  0  0
    5.7060   -8.7340   16.9300 H   0  0  0  0  0  0  0  0  0  0  0  0
    7.4410   -9.2990   17.0090 H   0  0  0  0  0  0  0  0  0  0  0  0
    6.1710  -10.1020   18.0320 H   0  0  0  0  0  0  0  0  0  0  0  0
  1  2  2  0  0  0  0
  1  5  1  0  0  0  0
  1 51  1  0  0  0  0
  2  3  1  0  0  0  0
  2  6  1  0  0  0  0
  3  4  1  0  0  0  0
  4  5  2  0  0  0  0
  4 52  1  0  0  0  0
  6  7  1  0  0  0  0
  6 53  1  0  0  0  0
  6 54  1  0  0  0  0
  7  8  1  0  0  0  0
  8  9  1  0  0  0  0
  8 18  2  0  0  0  0
  9 10  1  0  0  0  0
  9 55  1  0  0  0  0
 10 11  1  0  0  0  0
 10 19  1  0  0  0  0
 10 56  1  6  0  0  0
 11 12  1  0  0  0  0
 11 26  1  0  0  0  0
 11 57  1  1  0  0  0
 12 13  1  0  0  0  0
 12 58  1  0  0  0  0
 12 59  1  0  0  0  0
 13 27  1  0  0  0  0
 13 34  1  0  0  0  0
 13 60  1  6  0  0  0
 14 15  1  0  0  0  0
 14 34  1  0  0  0  0
 14 35  2  0  0  0  0
 15 16  1  0  0  0  0
 15 36  1  0  0  0  0
 15 61  1  1  0  0  0
 16 17  1  0  0  0  0
 16 62  1  0  0  0  0
 17 39  1  0  0  0  0
 17 41  2  0  0  0  0
 19 20  1  0  0  0  0
 19 63  1  0  0  0  0
 19 64  1  0  0  0  0
 20 21  2  0  0  0  0
 20 25  1  0  0  0  0
 21 22  1  0  0  0  0
 21 65  1  0  0  0  0
 22 23  2  0  0  0  0
 22 66  1  0  0  0  0
 23 24  1  0  0  0  0
 23 67  1  0  0  0  0
 24 25  2  0  0  0  0
 24 68  1  0  0  0  0
 25 69  1  0  0  0  0
 26 70  1  0  0  0  0
 27 28  1  0  0  0  0
 27 71  1  0  0  0  0
 27 72  1  0  0  0  0
 28 29  2  0  0  0  0
 28 33  1  0  0  0  0
 29 30  1  0  0  0  0
 29 73  1  0  0  0  0
 30 31  2  0  0  0  0
 30 74  1  0  0  0  0
 31 32  1  0  0  0  0
 31 75  1  0  0  0  0
 32 33  2  0  0  0  0
 32 76  1  0  0  0  0
 33 77  1  0  0  0  0
 34 78  1  0  0  0  0
 36 37  1  0  0  0  0
 36 38  1  0  0  0  0
 36 79  1  0  0  0  0
 37 80  1  0  0  0  0
 37 81  1  0  0  0  0
 37 82  1  0  0  0  0
 38 83  1  0  0  0  0
 38 84  1  0  0  0  0
 38 85  1  0  0  0  0
 39 40  1  0  0  0  0
 39 50  1  0  0  0  0
 40 42  1  0  0  0  0
 40 86  1  0  0  0  0
 40 87  1  0  0  0  0
 42 43  2  0  0  0  0
 42 46  1  0  0  0  0
 43 44  1  0  0  0  0
 43 88  1  0  0  0  0
 44 45  1  0  0  0  0
 45 46  2  0  0  0  0
 45 47  1  0  0  0  0
 47 48  1  0  0  0  0
 47 49  1  0  0  0  0
 47 89  1  0  0  0  0
 48 90  1  0  0  0  0
 48 91  1  0  0  0  0
 48 92  1  0  0  0  0
 49 93  1  0  0  0  0
 49 94  1  0  0  0  0
 49 95  1  0  0  0  0
 50 96  1  0  0  0  0
 50 97  1  0  0  0  0
 50 98  1  0  0  0  0
M  END
>  <charge>
0

>  <KI_NM>
0.015

>  <number_of_rotatable_bonds>
22

>  <lm5_entropy_jk>
52.938673341193955

>  <ligand_crystal_conformation>
A

$$$$
