2IKG.pdb
 OpenBabel11252210453D

 30 31  0  0  0  0  0  0  0  0999 V2000
   17.9340   -3.4230   10.1780 N   0  3  0  0  0  0  0  0  0  0  0  0
   19.1120   -3.7280   10.3180 O   0  5  0  0  0  0  0  0  0  0  0  0
   14.6390   -4.9150   11.1690 C   0  0  0  0  0  0  0  0  0  0  0  0
   16.0620   -7.4700   14.5380 N   0  0  0  0  0  0  0  0  0  0  0  0
   17.5530   -2.4950    9.4790 O   0  0  0  0  0  0  0  0  0  0  0  0
   15.5840   -4.1990   10.4400 C   0  0  0  0  0  0  0  0  0  0  0  0
   17.8570   -6.0680   14.6870 N   0  0  0  0  0  0  0  0  0  0  0  0
   16.9190   -4.2290   10.8750 C   0  0  0  0  0  0  0  0  0  0  0  0
   17.3110   -4.9620   12.0030 C   0  0  0  0  0  0  0  0  0  0  0  0
   16.3440   -5.6690   12.7380 C   0  0  0  0  0  0  0  0  0  0  0  0
   15.0050   -5.6350   12.3130 C   0  0  0  0  0  0  0  0  0  0  0  0
   16.7550   -6.3680   13.9600 C   0  0  0  0  0  0  0  0  0  0  0  0
   16.7710   -7.8100   15.6110 C   0  0  0  0  0  0  0  0  0  0  0  0
   16.6740   -8.8850   16.6170 C   0  0  0  0  0  0  0  0  0  0  0  0
   15.6700   -8.5610   17.7490 C   0  0  0  0  0  0  0  0  0  0  0  0
   16.1600   -7.4550   18.6840 C   0  0  0  0  0  0  0  0  0  0  0  0
   15.5000   -6.0700   18.4070 C   0  0  0  0  0  0  0  0  0  0  0  0
   15.0080   -5.4800   19.4000 O   0  0  0  0  0  0  0  0  0  0  0  0
   15.4750   -5.6420   17.2350 O   0  5  0  0  0  0  0  0  0  0  0  0
   17.9060   -6.9450   15.7300 O   0  0  0  0  0  0  0  0  0  0  0  0
   17.2670   -7.3610   18.6130 H   0  0  0  0  0  0  0  0  0  0  0  0
   13.5900   -4.8920   10.8620 H   0  0  0  0  0  0  0  0  0  0  0  0
   15.2790   -3.6170    9.5670 H   0  0  0  0  0  0  0  0  0  0  0  0
   18.3630   -4.9430   12.3160 H   0  0  0  0  0  0  0  0  0  0  0  0
   14.2130   -6.1240   12.8820 H   0  0  0  0  0  0  0  0  0  0  0  0
   17.6790   -9.0730   17.0830 H   0  0  0  0  0  0  0  0  0  0  0  0
   15.5520   -9.5100   18.3360 H   0  0  0  0  0  0  0  0  0  0  0  0
   15.9430   -7.7660   19.7280 H   0  0  0  0  0  0  0  0  0  0  0  0
   16.3680   -9.8470   16.1230 H   0  0  0  0  0  0  0  0  0  0  0  0
   14.6810   -8.3130   17.3000 H   0  0  0  0  0  0  0  0  0  0  0  0
  1  2  1  0  0  0  0
  1  5  2  0  0  0  0
  1  8  1  0  0  0  0
  3  6  2  0  0  0  0
  3 11  1  0  0  0  0
  3 22  1  0  0  0  0
  4 12  1  0  0  0  0
  4 13  2  0  0  0  0
  6  8  1  0  0  0  0
  6 23  1  0  0  0  0
  7 12  2  0  0  0  0
  7 20  1  0  0  0  0
  8  9  2  0  0  0  0
  9 10  1  0  0  0  0
  9 24  1  0  0  0  0
 10 11  2  0  0  0  0
 10 12  1  0  0  0  0
 11 25  1  0  0  0  0
 13 14  1  0  0  0  0
 13 20  1  0  0  0  0
 14 15  1  0  0  0  0
 14 26  1  0  0  0  0
 14 29  1  0  0  0  0
 15 16  1  0  0  0  0
 15 27  1  0  0  0  0
 15 30  1  0  0  0  0
 16 17  1  0  0  0  0
 16 21  1  0  0  0  0
 16 28  1  0  0  0  0
 17 18  2  0  0  0  0
 17 19  1  0  0  0  0
M  CHG  3   1   1   2  -1  19  -1
M  END
>  <lm5_entropy_jk>
21.679325925993282

>  <number_of_rotatable_bonds>
6

>  <deltaG_kcalmol>
-8.46

>  <charge>
-1

$$$$
