2OXX
 OpenBabel11252210453D

 16 17  0  0  1  0  0  0  0  0999 V2000
   21.8400    8.5170   19.1330 C   0  0  0  0  0  0  0  0  0  0  0  0
   21.3830    8.2950   20.4670 C   0  0  0  0  0  0  0  0  0  0  0  0
   21.8470    7.1860   21.2150 C   0  0  0  0  0  0  0  0  0  0  0  0
   22.7860    7.6380   18.5480 C   0  0  0  0  0  0  0  0  0  0  0  0
   23.3040    5.1250   21.0410 N   0  0  0  0  0  0  0  0  0  0  0  0
   23.1830    6.5320   19.3060 C   0  0  0  0  0  0  0  0  0  0  0  0
   22.7250    6.3140   20.5790 C   0  0  0  0  0  0  0  0  0  0  0  0
   24.9730    3.1790   20.1420 S   0  0  0  0  0  0  0  0  0  0  0  0
   24.1000    4.5940   20.0540 C   0  0  0  0  0  0  0  0  0  0  0  0
   24.0390    5.4650   18.9870 N   0  0  0  0  0  0  0  0  0  0  0  0
   23.4890    7.9230   16.7830 Br  0  0  0  0  0  0  0  0  0  0  0  0
   21.1560    9.9930   18.0990 Br  0  0  0  0  0  0  0  0  0  0  0  0
   20.1060    9.4810   21.2640 Br  0  0  0  0  0  0  0  0  0  0  0  0
   21.2980    6.8510   23.0250 Br  0  0  0  0  0  0  0  0  0  0  0  0
   23.0980    4.6690   21.9200 H   0  0  0  0  0  0  0  0  0  0  0  0
   24.5040    5.3190   18.1030 H   0  0  0  0  0  0  0  0  0  0  0  0
  1  2  2  0  0  0  0
  1  4  1  0  0  0  0
  1 12  1  0  0  0  0
  2  3  1  0  0  0  0
  2 13  1  0  0  0  0
  3  7  2  0  0  0  0
  3 14  1  0  0  0  0
  4  6  2  0  0  0  0
  4 11  1  0  0  0  0
  5  7  1  0  0  0  0
  5  9  1  0  0  0  0
  5 15  1  0  0  0  0
  6  7  1  0  0  0  0
  6 10  1  0  0  0  0
  8  9  2  0  0  0  0
  9 10  1  0  0  0  0
 10 16  1  0  0  0  0
M  END
>  <charge>
0

>  <Ki_NM>
200

>  <number_of_rotatable_bonds>
0

>  <lm5_entropy_jk>
7.2278

$$$$
