5QD5
 OpenBabel11252210453D

 78 80  0  0  1  0  0  0  0  0999 V2000
   24.3180    4.8670   17.5610 Cl  0  0  0  0  0  0  0  0  0  0  0  0
   25.9510    5.4700   17.7180 C   0  0  0  0  0  0  0  0  0  0  0  0
   26.3180    5.9000   18.9350 N   0  0  0  0  0  0  0  0  0  0  0  0
   27.5630    6.3550   19.0890 C   0  0  0  0  0  0  0  0  0  0  0  0
   28.4850    6.3980   18.0470 C   0  0  0  0  0  0  0  0  0  0  0  0
   28.1420    5.9050   16.7740 C   0  0  0  0  0  0  0  0  0  0  0  0
   26.8230    5.4390   16.6290 C   0  0  0  0  0  0  0  0  0  0  0  0
   29.1460    5.8680   15.6250 C   0  0  0  0  0  0  0  0  0  0  0  0
   30.4580    5.6910   15.9860 N   0  0  0  0  0  0  0  0  0  0  0  0
   31.5830    5.9510   15.0840 C   0  0  1  0  0  0  0  0  0  0  0  0
   32.4720    7.0150   15.7510 C   0  0  0  0  0  0  0  0  0  0  0  0
   31.6770    8.2850   16.1620 C   0  0  1  0  0  0  0  0  0  0  0  0
   32.6060    9.2520   16.8640 C   0  0  0  0  0  0  0  0  0  0  0  0
   31.8750   10.3030   17.7370 C   0  0  0  0  0  0  0  0  0  0  0  0
   31.0390    9.6530   18.7140 O   0  0  0  0  0  0  0  0  0  0  0  0
   31.6970    8.9260   19.7650 C   0  0  0  0  0  0  0  0  0  0  0  0
   30.8330    9.0910   21.0380 C   0  0  0  0  0  0  0  0  0  0  0  0
   29.3620    8.6300   20.8430 C   0  0  0  0  0  0  0  0  0  0  0  0
   29.2330    7.1000   20.8660 C   0  0  0  0  0  0  0  0  0  0  0  0
   27.8810    6.7340   20.3750 N   0  0  0  0  0  0  0  0  0  0  0  0
   31.0880    8.9970   14.9500 C   0  0  0  0  0  0  0  0  0  0  0  0
   32.2700    4.6150   14.7150 C   0  0  2  0  0  0  0  0  0  0  0  0
   33.4110    4.8040   13.8940 O   0  0  0  0  0  0  0  0  0  0  0  0
   31.2840    3.7900   13.8660 C   0  0  0  0  0  0  0  0  0  0  0  0
   31.7620    2.3850   13.4680 N   0  3  0  0  0  0  0  0  0  0  0  0
   30.7690    1.8390   12.4110 C   0  0  0  0  0  0  0  0  0  0  0  0
   30.7700    2.5850   11.0870 C   0  0  0  0  0  0  0  0  0  0  0  0
   31.9530    3.1070   10.5490 C   0  0  0  0  0  0  0  0  0  0  0  0
   31.9680    3.7590    9.3080 C   0  0  0  0  0  0  0  0  0  0  0  0
   30.7620    3.8990    8.6030 C   0  0  0  0  0  0  0  0  0  0  0  0
   29.5650    3.3900    9.1330 C   0  0  0  0  0  0  0  0  0  0  0  0
   29.5740    2.7290   10.3730 C   0  0  0  0  0  0  0  0  0  0  0  0
   33.2860    4.3170    8.7530 C   0  0  0  0  0  0  0  0  0  0  0  0
   33.8640    5.4000    9.6730 C   0  0  0  0  0  0  0  0  0  0  0  0
   34.3770    3.2370    8.6020 C   0  0  0  0  0  0  0  0  0  0  0  0
   28.8320    5.9720   14.4480 O   0  0  0  0  0  0  0  0  0  0  0  0
   29.4530    6.8550   18.2160 H   0  0  0  0  0  0  0  0  0  0  0  0
   26.4780    5.0440   15.6790 H   0  0  0  0  0  0  0  0  0  0  0  0
   30.6370    5.6340   16.9860 H   0  0  0  0  0  0  0  0  0  0  0  0
   31.2130    6.3910   14.1480 H   0  0  0  0  0  0  0  0  0  0  0  0
   33.2900    7.3030   15.0730 H   0  0  0  0  0  0  0  0  0  0  0  0
   32.9490    6.5790   16.6370 H   0  0  0  0  0  0  0  0  0  0  0  0
   30.8670    8.0290   16.8630 H   0  0  0  0  0  0  0  0  0  0  0  0
   33.2820    8.6780   17.4860 H   0  0  0  0  0  0  0  0  0  0  0  0
   33.2350    9.7660   16.1250 H   0  0  0  0  0  0  0  0  0  0  0  0
   32.6100   10.9400   18.2310 H   0  0  0  0  0  0  0  0  0  0  0  0
   31.2590   10.9600   17.1070 H   0  0  0  0  0  0  0  0  0  0  0  0
   32.6940    9.3420   19.9560 H   0  0  0  0  0  0  0  0  0  0  0  0
   31.8090    7.8710   19.4790 H   0  0  0  0  0  0  0  0  0  0  0  0
   31.2980    8.5680   21.8850 H   0  0  0  0  0  0  0  0  0  0  0  0
   30.8400   10.1590   21.2950 H   0  0  0  0  0  0  0  0  0  0  0  0
   28.7150    9.0720   21.6160 H   0  0  0  0  0  0  0  0  0  0  0  0
   28.9840    9.0270   19.8870 H   0  0  0  0  0  0  0  0  0  0  0  0
   29.4010    6.7310   21.8900 H   0  0  0  0  0  0  0  0  0  0  0  0
   30.0220    6.6520   20.2480 H   0  0  0  0  0  0  0  0  0  0  0  0
   27.0750    7.0370   20.9080 H   0  0  0  0  0  0  0  0  0  0  0  0
   32.5360    4.1190   15.6590 H   0  0  0  0  0  0  0  0  0  0  0  0
   31.1060    4.3410   12.9330 H   0  0  0  0  0  0  0  0  0  0  0  0
   30.3230    3.7290   14.3960 H   0  0  0  0  0  0  0  0  0  0  0  0
   31.8000    1.7620   14.3010 H   0  0  0  0  0  0  0  0  0  0  0  0
   32.7290    2.4480   13.0730 H   0  0  0  0  0  0  0  0  0  0  0  0
   29.7540    1.8560   12.8300 H   0  0  0  0  0  0  0  0  0  0  0  0
   30.9890    0.7840   12.2030 H   0  0  0  0  0  0  0  0  0  0  0  0
   32.8850    3.0380   11.0850 H   0  0  0  0  0  0  0  0  0  0  0  0
   30.7540    4.4190    7.6460 H   0  0  0  0  0  0  0  0  0  0  0  0
   28.6300    3.5030    8.5810 H   0  0  0  0  0  0  0  0  0  0  0  0
   28.6430    2.3300   10.7740 H   0  0  0  0  0  0  0  0  0  0  0  0
   33.0880    4.7700    7.7660 H   0  0  0  0  0  0  0  0  0  0  0  0
   34.0420    2.4330    7.9350 H   0  0  0  0  0  0  0  0  0  0  0  0
   34.6480    2.7920    9.5660 H   0  0  0  0  0  0  0  0  0  0  0  0
   35.2890    3.6570    8.1550 H   0  0  0  0  0  0  0  0  0  0  0  0
   34.1840    5.1190   14.4440 H   0  0  0  0  0  0  0  0  0  0  0  0
   30.6730    9.9710   15.2360 H   0  0  0  0  0  0  0  0  0  0  0  0
   31.8540    9.1790   14.1900 H   0  0  0  0  0  0  0  0  0  0  0  0
   30.2550    8.4270   14.5310 H   0  0  0  0  0  0  0  0  0  0  0  0
   33.2140    6.2840    9.6640 H   0  0  0  0  0  0  0  0  0  0  0  0
   33.9240    5.0670   10.7120 H   0  0  0  0  0  0  0  0  0  0  0  0
   34.8560    5.7260    9.3450 H   0  0  0  0  0  0  0  0  0  0  0  0
  1  2  1  0  0  0  0
  2  3  2  0  0  0  0
  2  7  1  0  0  0  0
  3  4  1  0  0  0  0
  4  5  2  0  0  0  0
  4 20  1  0  0  0  0
  5  6  1  0  0  0  0
  6  7  2  0  0  0  0
  6  8  1  0  0  0  0
  8  9  1  0  0  0  0
  8 36  2  0  0  0  0
  9 10  1  0  0  0  0
 10 11  1  0  0  0  0
 10 22  1  0  0  0  0
 10 40  1  6  0  0  0
 11 12  1  0  0  0  0
 12 13  1  0  0  0  0
 12 21  1  0  0  0  0
 12 43  1  1  0  0  0
 13 14  1  0  0  0  0
 14 15  1  0  0  0  0
 15 16  1  0  0  0  0
 16 17  1  0  0  0  0
 17 18  1  0  0  0  0
 18 19  1  0  0  0  0
 19 20  1  0  0  0  0
 22 23  1  0  0  0  0
 22 24  1  0  0  0  0
 22 57  1  1  0  0  0
 24 25  1  0  0  0  0
 25 26  1  0  0  0  0
 26 27  1  0  0  0  0
 27 28  2  0  0  0  0
 27 32  1  0  0  0  0
 28 29  1  0  0  0  0
 29 30  2  0  0  0  0
 29 33  1  0  0  0  0
 30 31  1  0  0  0  0
 31 32  2  0  0  0  0
 33 34  1  0  0  0  0
 33 35  1  0  0  0  0
 37  5  1  0  0  0  0
 38  7  1  0  0  0  0
 39  9  1  0  0  0  0
 41 11  1  0  0  0  0
 42 11  1  0  0  0  0
 44 13  1  0  0  0  0
 45 13  1  0  0  0  0
 46 14  1  0  0  0  0
 47 14  1  0  0  0  0
 48 16  1  0  0  0  0
 49 16  1  0  0  0  0
 50 17  1  0  0  0  0
 51 17  1  0  0  0  0
 52 18  1  0  0  0  0
 53 18  1  0  0  0  0
 54 19  1  0  0  0  0
 55 19  1  0  0  0  0
 56 20  1  0  0  0  0
 58 24  1  0  0  0  0
 59 24  1  0  0  0  0
 60 25  1  0  0  0  0
 61 25  1  0  0  0  0
 62 26  1  0  0  0  0
 63 26  1  0  0  0  0
 64 28  1  0  0  0  0
 65 30  1  0  0  0  0
 66 31  1  0  0  0  0
 67 32  1  0  0  0  0
 68 33  1  0  0  0  0
 69 35  1  0  0  0  0
 70 35  1  0  0  0  0
 71 35  1  0  0  0  0
 72 23  1  0  0  0  0
 73 21  1  0  0  0  0
 74 21  1  0  0  0  0
 75 21  1  0  0  0  0
 76 34  1  0  0  0  0
 77 34  1  0  0  0  0
 78 34  1  0  0  0  0
M  CHG  1  25   1
M  END
>  <IC50_NM>
31

>  <number_of_rotatable_bonds>
6

>  <lm5_entropy_jk>
37.68812041732692

>  <charge>
1

>  <old_name>
BACE_8

>  <xray_resolution>
2.3

$$$$
