3qu0.pdb
 OpenBabel11252210453D

 38 40  0  0  0  0  0  0  0  0999 V2000
   65.8790  154.4230  -50.5760 N   0  0  0  0  0  0  0  0  0  0  0  0
   64.5550  154.8890  -48.6710 N   0  0  0  0  0  0  0  0  0  0  0  0
   70.9340  150.1460  -47.6920 N   0  0  0  0  0  0  0  0  0  0  0  0
   67.4270  153.5860  -52.2160 N   0  0  0  0  0  0  0  0  0  0  0  0
   62.1280  152.8170  -42.7310 N   0  0  0  0  0  0  0  0  0  0  0  0
   67.5810  152.8410  -49.9060 C   0  0  0  0  0  0  0  0  0  0  0  0
   66.9960  153.6160  -50.9360 C   0  0  0  0  0  0  0  0  0  0  0  0
   65.6010  154.2140  -49.2700 C   0  0  0  0  0  0  0  0  0  0  0  0
   63.8730  154.5640  -47.4610 C   0  0  0  0  0  0  0  0  0  0  0  0
   68.6290  151.8910  -50.0950 C   0  0  0  0  0  0  0  0  0  0  0  0
   69.0580  151.0380  -48.9450 C   0  0  0  0  0  0  0  0  0  0  0  0
   68.1660  150.2350  -48.2270 C   0  0  0  0  0  0  0  0  0  0  0  0
   68.6750  149.3830  -47.2420 C   0  0  0  0  0  0  0  0  0  0  0  0
   70.0570  149.3550  -47.0080 C   0  0  0  0  0  0  0  0  0  0  0  0
   70.4340  150.9780  -48.6360 C   0  0  0  0  0  0  0  0  0  0  0  0
   64.0620  153.3880  -46.7210 C   0  0  0  0  0  0  0  0  0  0  0  0
   63.3140  153.1850  -45.5570 C   0  0  0  0  0  0  0  0  0  0  0  0
   62.3580  154.1170  -45.1410 C   0  0  0  0  0  0  0  0  0  0  0  0
   62.1780  155.2960  -45.8820 C   0  0  0  0  0  0  0  0  0  0  0  0
   62.9250  155.5220  -47.0300 C   0  0  0  0  0  0  0  0  0  0  0  0
   69.1960  151.7500  -51.1770 O   0  0  0  0  0  0  0  0  0  0  0  0
   60.1580  153.0500  -44.4320 O   0  0  0  0  0  0  0  0  0  0  0  0
   60.9200  154.9950  -43.0900 O   0  0  0  0  0  0  0  0  0  0  0  0
   66.7640  153.0920  -48.4090 S   0  0  0  0  0  0  0  0  0  0  0  0
   61.2790  153.7820  -43.8400 S   0  0  0  0  0  0  0  0  0  0  0  0
   63.9730  155.4970  -49.3100 H   0  0  0  0  0  0  0  0  0  0  0  0
   66.9990  154.1780  -52.9490 H   0  0  0  0  0  0  0  0  0  0  0  0
   68.2480  153.0070  -52.4620 H   0  0  0  0  0  0  0  0  0  0  0  0
   62.2240  151.7940  -42.9870 H   0  0  0  0  0  0  0  0  0  0  0  0
   61.9880  152.9360  -41.7190 H   0  0  0  0  0  0  0  0  0  0  0  0
   67.0880  150.2530  -48.4160 H   0  0  0  0  0  0  0  0  0  0  0  0
   68.0040  148.7430  -46.6610 H   0  0  0  0  0  0  0  0  0  0  0  0
   70.4720  148.6810  -46.2440 H   0  0  0  0  0  0  0  0  0  0  0  0
   71.1460  151.6260  -49.1700 H   0  0  0  0  0  0  0  0  0  0  0  0
   64.7580  152.6050  -47.0260 H   0  0  0  0  0  0  0  0  0  0  0  0
   63.5030  152.2680  -44.9850 H   0  0  0  0  0  0  0  0  0  0  0  0
   61.4460  156.0570  -45.5820 H   0  0  0  0  0  0  0  0  0  0  0  0
   62.7580  156.4310  -47.6100 H   0  0  0  0  0  0  0  0  0  0  0  0
  1  8  2  0  0  0  0
  2  9  1  0  0  0  0
  2 26  1  0  0  0  0
  3 14  2  0  0  0  0
  4  7  1  0  0  0  0
  4 27  1  0  0  0  0
  4 28  1  0  0  0  0
  5 29  1  0  0  0  0
  5 30  1  0  0  0  0
  6 24  1  0  0  0  0
  7  1  1  0  0  0  0
  7  6  2  0  0  0  0
  8  2  1  0  0  0  0
  8 24  1  0  0  0  0
  9 20  2  0  0  0  0
  9 16  1  0  0  0  0
 10  6  1  0  0  0  0
 10 11  1  0  0  0  0
 11 15  2  0  0  0  0
 11 12  1  0  0  0  0
 12 13  2  0  0  0  0
 12 31  1  0  0  0  0
 13 14  1  0  0  0  0
 13 32  1  0  0  0  0
 14 33  1  0  0  0  0
 15  3  1  0  0  0  0
 15 34  1  0  0  0  0
 16 17  2  0  0  0  0
 16 35  1  0  0  0  0
 17 18  1  0  0  0  0
 17 36  1  0  0  0  0
 18 25  1  0  0  0  0
 19 18  2  0  0  0  0
 19 37  1  0  0  0  0
 20 19  1  0  0  0  0
 20 38  1  0  0  0  0
 21 10  2  0  0  0  0
 22 25  2  0  0  0  0
 25 23  2  0  0  0  0
 25  5  1  0  0  0  0
M  END
>  <lm5_entropy_jk>
22.397995528352578

>  <number_of_rotatable_bonds>
5

>  <IC50_NM>
20

>  <charge>
0

$$$$
