2Q55_A.pdb
 OpenBabel11252210453D

 93 97  0  0  1  0  0  0  0  0999 V2000
    7.3020   -9.0870   18.2530 C   0  0  0  0  0  0  0  0  0  0  0  0
    7.1850   -6.3270   17.2760 N   0  0  0  0  0  0  0  0  0  0  0  0
    7.1790   -5.6920   19.4950 O   0  0  0  0  0  0  0  0  0  0  0  0
    7.2890   -7.4660   16.3260 C   0  0  0  0  0  0  0  0  0  0  0  0
    6.9040   -7.9260   19.0910 N   0  0  0  0  0  0  0  0  0  0  0  0
    6.1870   -4.6760   14.8160 O   0  0  0  0  0  0  0  0  0  0  0  0
    7.1340   -6.6000   18.6650 C   0  0  0  0  0  0  0  0  0  0  0  0
    5.5950   -3.4580   16.6540 N   0  0  0  0  0  0  0  0  0  0  0  0
    7.0210    0.7850   12.6230 C   0  0  0  0  0  0  0  0  0  0  0  0
    4.3040    0.2750   13.7260 N   0  0  0  0  0  0  0  0  0  0  0  0
    5.1300    0.6940   16.4840 O   0  0  0  0  0  0  0  0  0  0  0  0
    6.5120    1.9010   11.9400 C   0  0  0  0  0  0  0  0  0  0  0  0
    3.8820   -1.5370   12.4170 O   0  0  0  0  0  0  0  0  0  0  0  0
    6.7060    2.0260   10.5620 C   0  0  0  0  0  0  0  0  0  0  0  0
    7.4170    1.0470    9.8610 C   0  0  0  0  0  0  0  0  0  0  0  0
    7.9530   -0.0480   10.5460 C   0  0  0  0  0  0  0  0  0  0  0  0
    7.7580   -0.1820   11.9220 C   0  0  0  0  0  0  0  0  0  0  0  0
    7.5410   -4.9510   16.8620 C   0  0  2  0  0  0  0  0  0  0  0  0
    6.3810   -4.4080   15.9900 C   0  0  0  0  0  0  0  0  0  0  0  0
    4.2960   -2.9810   16.1140 C   0  0  1  0  0  0  0  0  0  0  0  0
    8.9190   -4.8010   16.1590 C   0  0  0  0  0  0  0  0  0  0  0  0
    9.0890   -3.3630   15.6510 C   0  0  0  0  0  0  0  0  0  0  0  0
   10.0390   -5.1650   17.1450 C   0  0  0  0  0  0  0  0  0  0  0  0
    2.3500   -7.0940   15.6170 C   0  0  0  0  0  0  0  0  0  0  0  0
    2.9500   -7.8970   16.5910 C   0  0  0  0  0  0  0  0  0  0  0  0
    3.6030   -7.3010   17.6750 C   0  0  0  0  0  0  0  0  0  0  0  0
    3.6590   -5.9090   17.7780 C   0  0  0  0  0  0  0  0  0  0  0  0
    3.0620   -5.1020   16.7960 C   0  0  0  0  0  0  0  0  0  0  0  0
    2.4020   -5.7020   15.7140 C   0  0  0  0  0  0  0  0  0  0  0  0
    3.1190   -3.6080   16.9150 C   0  0  0  0  0  0  0  0  0  0  0  0
    4.1850   -1.4510   16.2750 C   0  0  0  0  0  0  0  0  0  0  0  0
    5.3690   -0.5890   15.8400 C   0  0  1  0  0  0  0  0  0  0  0  0
    5.5270   -0.3270   14.3170 C   0  0  2  0  0  0  0  0  0  0  0  0
    3.6010   -0.3910   12.7460 C   0  0  0  0  0  0  0  0  0  0  0  0
    2.4130    0.3210   12.0690 C   0  0  1  0  0  0  0  0  0  0  0  0
    1.9200    1.4340   12.8800 O   0  0  0  0  0  0  0  0  0  0  0  0
    6.7450    0.6060   14.0870 C   0  0  0  0  0  0  0  0  0  0  0  0
    1.6180    2.5370   12.0580 C   0  0  0  0  0  0  0  0  0  0  0  0
    1.0630    3.5070   12.4980 O   0  0  0  0  0  0  0  0  0  0  0  0
    2.1650    2.3030   10.7840 N   0  0  0  0  0  0  0  0  0  0  0  0
    2.7750    0.9440   10.7010 C   0  0  0  0  0  0  0  0  0  0  0  0
    1.8020    3.0430    9.6040 C   0  0  0  0  0  0  0  0  0  0  0  0
    2.7880    3.3150    8.6430 C   0  0  0  0  0  0  0  0  0  0  0  0
    2.4590    4.0880    7.5270 C   0  0  0  0  0  0  0  0  0  0  0  0
    1.1680    4.6030    7.3810 C   0  0  0  0  0  0  0  0  0  0  0  0
    0.1940    4.3360    8.3480 C   0  0  0  0  0  0  0  0  0  0  0  0
    0.4940    3.5380    9.4540 C   0  0  0  0  0  0  0  0  0  0  0  0
    8.0350   -8.6440   16.9770 C   0  0  0  0  0  0  0  0  0  0  0  0
    6.3570   -9.6340   17.9740 H   0  0  0  0  0  0  0  0  0  0  0  0
    7.9540   -9.7800   18.8480 H   0  0  0  0  0  0  0  0  0  0  0  0
    7.8090   -7.1560   15.3880 H   0  0  0  0  0  0  0  0  0  0  0  0
    6.2380   -7.7840   16.0790 H   0  0  0  0  0  0  0  0  0  0  0  0
    6.9830   -8.0850   20.1170 H   0  0  0  0  0  0  0  0  0  0  0  0
    5.6830   -3.3490   17.6850 H   0  0  0  0  0  0  0  0  0  0  0  0
    4.0710    1.2210   14.0230 H   0  0  0  0  0  0  0  0  0  0  0  0
    6.0240    0.9300   16.9390 H   0  0  0  0  0  0  0  0  0  0  0  0
    5.9660    2.6760   12.4820 H   0  0  0  0  0  0  0  0  0  0  0  0
    6.2970    2.8860   10.0250 H   0  0  0  0  0  0  0  0  0  0  0  0
    7.5380    1.1390    8.7810 H   0  0  0  0  0  0  0  0  0  0  0  0
    8.5150   -0.8050   10.0020 H   0  0  0  0  0  0  0  0  0  0  0  0
    8.1830   -1.0370   12.4510 H   0  0  0  0  0  0  0  0  0  0  0  0
    7.5910   -4.3310   17.8040 H   0  0  0  0  0  0  0  0  0  0  0  0
    4.2210   -3.2710   15.0350 H   0  0  0  0  0  0  0  0  0  0  0  0
    8.9770   -5.4880   15.2790 H   0  0  0  0  0  0  0  0  0  0  0  0
   10.1360   -3.2190   15.3020 H   0  0  0  0  0  0  0  0  0  0  0  0
    8.4020   -3.1600   14.8000 H   0  0  0  0  0  0  0  0  0  0  0  0
    8.8840   -2.6270   16.4590 H   0  0  0  0  0  0  0  0  0  0  0  0
   11.0240   -5.0880   16.6400 H   0  0  0  0  0  0  0  0  0  0  0  0
   10.0400   -4.4710   18.0130 H   0  0  0  0  0  0  0  0  0  0  0  0
    9.9200   -6.2070   17.5090 H   0  0  0  0  0  0  0  0  0  0  0  0
    1.8430   -7.5530   14.7750 H   0  0  0  0  0  0  0  0  0  0  0  0
    2.9180   -8.9850   16.5090 H   0  0  0  0  0  0  0  0  0  0  0  0
    4.0760   -7.9260   18.4370 H   0  0  0  0  0  0  0  0  0  0  0  0
    4.1760   -5.4450   18.6210 H   0  0  0  0  0  0  0  0  0  0  0  0
    1.9190   -5.0830   14.9600 H   0  0  0  0  0  0  0  0  0  0  0  0
    2.1650   -3.1560   16.5560 H   0  0  0  0  0  0  0  0  0  0  0  0
    3.2270   -3.3230   17.9950 H   0  0  0  0  0  0  0  0  0  0  0  0
    4.0840   -1.2540   17.3760 H   0  0  0  0  0  0  0  0  0  0  0  0
    3.2520   -1.1140   15.7680 H   0  0  0  0  0  0  0  0  0  0  0  0
    6.3290   -1.0060   16.2370 H   0  0  0  0  0  0  0  0  0  0  0  0
    5.7330   -1.3140   13.8160 H   0  0  0  0  0  0  0  0  0  0  0  0
    1.5520   -0.3910   12.0000 H   0  0  0  0  0  0  0  0  0  0  0  0
    6.5640    1.5940   14.5820 H   0  0  0  0  0  0  0  0  0  0  0  0
    7.6360    0.1610   14.6030 H   0  0  0  0  0  0  0  0  0  0  0  0
    2.3570    0.3570    9.8460 H   0  0  0  0  0  0  0  0  0  0  0  0
    3.8860    1.0530   10.5600 H   0  0  0  0  0  0  0  0  0  0  0  0
    3.8100    2.9480    8.7620 H   0  0  0  0  0  0  0  0  0  0  0  0
    3.2240    4.3020    6.7740 H   0  0  0  0  0  0  0  0  0  0  0  0
    0.9250    5.2200    6.5110 H   0  0  0  0  0  0  0  0  0  0  0  0
   -0.8120    4.7490    8.2340 H   0  0  0  0  0  0  0  0  0  0  0  0
   -0.2880    3.3010   10.1760 H   0  0  0  0  0  0  0  0  0  0  0  0
    8.0510   -9.5030   16.2690 H   0  0  0  0  0  0  0  0  0  0  0  0
    9.0870   -8.3640   17.2140 H   0  0  0  0  0  0  0  0  0  0  0  0
  1  5  1  0  0  0  0
  1 48  1  0  0  0  0
  1 49  1  0  0  0  0
  1 50  1  0  0  0  0
  2  4  1  0  0  0  0
  2  7  1  0  0  0  0
  2 18  1  0  0  0  0
  3  7  2  0  0  0  0
  4 48  1  0  0  0  0
  4 51  1  0  0  0  0
  4 52  1  0  0  0  0
  5  7  1  0  0  0  0
  5 53  1  0  0  0  0
  6 19  2  0  0  0  0
  8 19  1  0  0  0  0
  8 20  1  0  0  0  0
  8 54  1  0  0  0  0
  9 12  2  0  0  0  0
  9 17  1  0  0  0  0
  9 37  1  0  0  0  0
 10 33  1  0  0  0  0
 10 34  1  0  0  0  0
 10 55  1  0  0  0  0
 11 32  1  0  0  0  0
 11 56  1  0  0  0  0
 12 14  1  0  0  0  0
 12 57  1  0  0  0  0
 13 34  2  0  0  0  0
 14 15  2  0  0  0  0
 14 58  1  0  0  0  0
 15 16  1  0  0  0  0
 15 59  1  0  0  0  0
 16 17  2  0  0  0  0
 16 60  1  0  0  0  0
 17 61  1  0  0  0  0
 18 19  1  0  0  0  0
 18 21  1  0  0  0  0
 18 62  1  1  0  0  0
 20 30  1  0  0  0  0
 20 31  1  0  0  0  0
 20 63  1  6  0  0  0
 21 22  1  0  0  0  0
 21 23  1  0  0  0  0
 21 64  1  0  0  0  0
 22 65  1  0  0  0  0
 22 66  1  0  0  0  0
 22 67  1  0  0  0  0
 23 68  1  0  0  0  0
 23 69  1  0  0  0  0
 23 70  1  0  0  0  0
 24 25  2  0  0  0  0
 24 29  1  0  0  0  0
 24 71  1  0  0  0  0
 25 26  1  0  0  0  0
 25 72  1  0  0  0  0
 26 27  2  0  0  0  0
 26 73  1  0  0  0  0
 27 28  1  0  0  0  0
 27 74  1  0  0  0  0
 28 29  2  0  0  0  0
 28 30  1  0  0  0  0
 29 75  1  0  0  0  0
 30 76  1  0  0  0  0
 30 77  1  0  0  0  0
 31 32  1  0  0  0  0
 31 78  1  0  0  0  0
 31 79  1  0  0  0  0
 32 33  1  0  0  0  0
 32 80  1  1  0  0  0
 33 37  1  0  0  0  0
 33 81  1  6  0  0  0
 34 35  1  0  0  0  0
 35 36  1  0  0  0  0
 35 41  1  0  0  0  0
 35 82  1  1  0  0  0
 36 38  1  0  0  0  0
 37 83  1  0  0  0  0
 37 84  1  0  0  0  0
 38 39  2  0  0  0  0
 38 40  1  0  0  0  0
 40 41  1  0  0  0  0
 40 42  1  0  0  0  0
 41 85  1  0  0  0  0
 41 86  1  0  0  0  0
 42 43  2  0  0  0  0
 42 47  1  0  0  0  0
 43 44  1  0  0  0  0
 43 87  1  0  0  0  0
 44 45  2  0  0  0  0
 44 88  1  0  0  0  0
 45 46  1  0  0  0  0
 45 89  1  0  0  0  0
 46 47  2  0  0  0  0
 46 90  1  0  0  0  0
 47 91  1  0  0  0  0
 48 92  1  0  0  0  0
 48 93  1  0  0  0  0
M  END
>  <charge>
0

>  <KI_NM>
2.04

>  <number_of_rotatable_bonds>
16

>  <lm5_entropy_jk>
39.118013893725276

>  <ligand_crystal_conformation>
A

$$$$
