3RMF
 OpenBabel11252210453D

 45 48  0  0  0  0  0  0  0  0999 V2000
   65.7100  154.5750  -50.6890 N   0  0  0  0  0  0  0  0  0  0  0  0
   64.5320  155.2190  -48.8130 N   0  0  0  0  0  0  0  0  0  0  0  0
   66.8740  153.4330  -52.3070 N   0  0  0  0  0  0  0  0  0  0  0  0
   61.9930  153.6660  -43.0300 N   0  0  0  0  0  0  0  0  0  0  0  0
   67.3450  153.0530  -50.0140 C   0  0  0  0  0  0  0  0  0  0  0  0
   66.7050  153.6980  -51.0240 C   0  0  0  0  0  0  0  0  0  0  0  0
   65.5750  154.5650  -49.3820 C   0  0  0  0  0  0  0  0  0  0  0  0
   63.8210  155.0240  -47.6530 C   0  0  0  0  0  0  0  0  0  0  0  0
   68.3520  152.0030  -50.2350 C   0  0  0  0  0  0  0  0  0  0  0  0
   68.8110  151.1430  -49.0740 C   0  0  0  0  0  0  0  0  0  0  0  0
   70.1110  150.5990  -49.1120 C   0  0  0  0  0  0  0  0  0  0  0  0
   70.5580  149.7470  -48.0890 C   0  0  0  0  0  0  0  0  0  0  0  0
   69.7320  149.4470  -46.9970 C   0  0  0  0  0  0  0  0  0  0  0  0
   68.4260  149.9680  -46.9530 C   0  0  0  0  0  0  0  0  0  0  0  0
   67.9590  150.7740  -48.0050 C   0  0  0  0  0  0  0  0  0  0  0  0
   63.0860  156.0830  -47.1250 C   0  0  0  0  0  0  0  0  0  0  0  0
   62.2920  155.9250  -45.9860 C   0  0  0  0  0  0  0  0  0  0  0  0
   62.2250  154.6530  -45.3970 C   0  0  0  0  0  0  0  0  0  0  0  0
   62.9420  153.5630  -45.9200 C   0  0  0  0  0  0  0  0  0  0  0  0
   63.7410  153.7670  -47.0500 C   0  0  0  0  0  0  0  0  0  0  0  0
   70.1910  148.6140  -45.9610 C   0  0  0  0  0  0  0  0  0  0  0  0
   69.3580  148.3310  -44.8630 C   0  0  0  0  0  0  0  0  0  0  0  0
   68.0590  148.8640  -44.8130 C   0  0  0  0  0  0  0  0  0  0  0  0
   67.5870  149.6700  -45.8630 C   0  0  0  0  0  0  0  0  0  0  0  0
   68.8060  151.8110  -51.3500 O   0  0  0  0  0  0  0  0  0  0  0  0
   60.2110  153.2850  -44.3630 O   0  0  0  0  0  0  0  0  0  0  0  0
   60.7380  155.5650  -43.3100 O   0  0  0  0  0  0  0  0  0  0  0  0
   66.7680  153.6440  -48.4900 S   0  0  0  0  0  0  0  0  0  0  0  0
   61.1160  154.3850  -44.0750 S   0  0  0  0  0  0  0  0  0  0  0  0
   64.0190  155.7810  -49.4860 H   0  0  0  0  0  0  0  0  0  0  0  0
   66.7130  154.1970  -52.9510 H   0  0  0  0  0  0  0  0  0  0  0  0
   67.6890  152.8520  -52.4580 H   0  0  0  0  0  0  0  0  0  0  0  0
   61.2790  152.9510  -43.1740 H   0  0  0  0  0  0  0  0  0  0  0  0
   61.5350  154.3760  -42.4610 H   0  0  0  0  0  0  0  0  0  0  0  0
   70.7660  150.8270  -49.9540 H   0  0  0  0  0  0  0  0  0  0  0  0
   71.5440  149.3070  -48.1560 H   0  0  0  0  0  0  0  0  0  0  0  0
   66.9230  151.0900  -47.9890 H   0  0  0  0  0  0  0  0  0  0  0  0
   63.1110  157.0450  -47.6180 H   0  0  0  0  0  0  0  0  0  0  0  0
   61.7190  156.7800  -45.6090 H   0  0  0  0  0  0  0  0  0  0  0  0
   62.8830  152.5630  -45.4770 H   0  0  0  0  0  0  0  0  0  0  0  0
   64.2700  152.9250  -47.4800 H   0  0  0  0  0  0  0  0  0  0  0  0
   71.1830  148.1730  -46.0180 H   0  0  0  0  0  0  0  0  0  0  0  0
   69.7030  147.6790  -44.0620 H   0  0  0  0  0  0  0  0  0  0  0  0
   67.4100  148.6370  -43.9660 H   0  0  0  0  0  0  0  0  0  0  0  0
   66.5720  150.0630  -45.8280 H   0  0  0  0  0  0  0  0  0  0  0  0
  1  7  2  0  0  0  0
  2  8  1  0  0  0  0
  2 30  1  0  0  0  0
  3  6  1  0  0  0  0
  3 31  1  0  0  0  0
  3 32  1  0  0  0  0
  4 33  1  0  0  0  0
  4 34  1  0  0  0  0
  5 28  1  0  0  0  0
  6  1  1  0  0  0  0
  6  5  2  0  0  0  0
  7  2  1  0  0  0  0
  7 28  1  0  0  0  0
  8 16  2  0  0  0  0
  8 20  1  0  0  0  0
  9  5  1  0  0  0  0
  9 10  1  0  0  0  0
 10 11  2  0  0  0  0
 10 15  1  0  0  0  0
 11 12  1  0  0  0  0
 11 35  1  0  0  0  0
 12 13  2  0  0  0  0
 12 36  1  0  0  0  0
 13 21  1  0  0  0  0
 14 13  1  0  0  0  0
 14 24  1  0  0  0  0
 15 14  2  0  0  0  0
 15 37  1  0  0  0  0
 16 17  1  0  0  0  0
 16 38  1  0  0  0  0
 17 18  2  0  0  0  0
 17 39  1  0  0  0  0
 18 29  1  0  0  0  0
 19 18  1  0  0  0  0
 19 40  1  0  0  0  0
 20 19  2  0  0  0  0
 20 41  1  0  0  0  0
 21 22  2  0  0  0  0
 21 42  1  0  0  0  0
 22 43  1  0  0  0  0
 23 22  1  0  0  0  0
 23 44  1  0  0  0  0
 24 23  2  0  0  0  0
 24 45  1  0  0  0  0
 25  9  2  0  0  0  0
 26 29  2  0  0  0  0
 29 27  2  0  0  0  0
 29  4  1  0  0  0  0
M  END
>  <lm5_entropy_jk>
22.397995528352578

>  <number_of_rotatable_bonds>
5

>  <IC50_NM>
82000

>  <charge>
0

$$$$
