model25
 OpenBabel11252210453D

 83 85  0  0  1  0  0  0  0  0999 V2000
    6.0920   18.1610   12.0900 C   0  0  0  0  0  0  0  0  0  0  0  0
   11.1770   17.9020    7.5790 C   0  0  1  0  0  0  0  0  0  0  0  0
    4.9500   16.4000   13.3070 N   0  0  0  0  0  0  0  0  0  0  0  0
    8.2670   18.4150    8.9030 N   0  0  0  0  0  0  0  0  0  0  0  0
   12.0650   18.7290    6.8360 O   0  0  0  0  0  0  0  0  0  0  0  0
    5.0880   19.0770   12.4470 C   0  0  0  0  0  0  0  0  0  0  0  0
    9.7760   18.2030    7.0080 C   0  0  0  0  0  0  0  0  0  0  0  0
    4.6830   17.5670    9.3620 N   0  0  0  0  0  0  0  0  0  0  0  0
    5.6110   19.3930    8.3590 O   0  0  0  0  0  0  0  0  0  0  0  0
    4.0090   18.6210   13.2250 C   0  0  0  0  0  0  0  0  0  0  0  0
    8.6760   17.6450    7.8430 C   0  0  0  0  0  0  0  0  0  0  0  0
   11.7450   15.9740    6.0460 N   0  0  0  0  0  0  0  0  0  0  0  0
    8.1810   16.5700    7.6010 O   0  0  0  0  0  0  0  0  0  0  0  0
    3.9740   17.2740   13.6260 C   0  0  0  0  0  0  0  0  0  0  0  0
    7.0900   18.0220    9.7360 C   0  0  1  0  0  0  0  0  0  0  0  0
   10.2620   14.2370    6.0180 O   0  0  0  0  0  0  0  0  0  0  0  0
    7.2460   18.5720   11.1840 C   0  0  0  0  0  0  0  0  0  0  0  0
    5.9820   16.8370   12.5530 C   0  0  0  0  0  0  0  0  0  0  0  0
    5.7390   18.4110    9.0720 C   0  0  0  0  0  0  0  0  0  0  0  0
    3.4090   17.5520    8.6170 C   0  0  0  0  0  0  0  0  0  0  0  0
    3.3770   16.3470    7.6450 C   0  0  0  0  0  0  0  0  0  0  0  0
    4.4200   16.4640    6.5000 C   0  0  0  0  0  0  0  0  0  0  0  0
    3.9610   17.4390    5.3860 C   0  0  0  0  0  0  0  0  0  0  0  0
    5.1270   17.9000    4.4750 C   0  0  0  0  0  0  0  0  0  0  0  0
    6.0010   16.7300    3.9730 C   0  0  0  0  0  0  0  0  0  0  0  0
    6.9010   17.1600    2.7950 C   0  0  0  0  0  0  0  0  0  0  0  0
    7.8910   16.0440    2.3970 C   0  0  0  0  0  0  0  0  0  0  0  0
    9.1380   16.0470    3.3040 C   0  0  0  0  0  0  0  0  0  0  0  0
   10.0030   14.7900    3.0780 C   0  0  0  0  0  0  0  0  0  0  0  0
   11.2960   14.8620    3.9470 C   0  0  0  0  0  0  0  0  0  0  0  0
   11.6000   16.3850    7.4490 C   0  0  1  0  0  0  0  0  0  0  0  0
   11.0430   14.9670    5.4360 C   0  0  0  0  0  0  0  0  0  0  0  0
   12.9380   16.0980    8.1890 C   0  0  0  0  0  0  0  0  0  0  0  0
   13.4700   14.6810    8.0120 C   0  0  0  0  0  0  0  0  0  0  0  0
   12.7270   13.5840    8.4660 C   0  0  0  0  0  0  0  0  0  0  0  0
   13.2050   12.2720    8.3080 C   0  0  0  0  0  0  0  0  0  0  0  0
   14.4460   12.0550    7.6890 C   0  0  0  0  0  0  0  0  0  0  0  0
   15.2100   13.1480    7.2450 C   0  0  0  0  0  0  0  0  0  0  0  0
   14.7210   14.4570    7.4120 C   0  0  0  0  0  0  0  0  0  0  0  0
   15.3080   15.3000    7.0620 H   0  0  0  0  0  0  0  0  0  0  0  0
    8.6540   19.3540    8.9600 H   0  0  0  0  0  0  0  0  0  0  0  0
   11.2120   18.1800    8.6490 H   0  0  0  0  0  0  0  0  0  0  0  0
   12.7200   19.1040    7.4830 H   0  0  0  0  0  0  0  0  0  0  0  0
    9.6670   17.7580    6.0170 H   0  0  0  0  0  0  0  0  0  0  0  0
    4.9000   16.7600    9.9410 H   0  0  0  0  0  0  0  0  0  0  0  0
   12.4230   16.4650    5.4790 H   0  0  0  0  0  0  0  0  0  0  0  0
    7.0330   16.9270    9.7740 H   0  0  0  0  0  0  0  0  0  0  0  0
    7.3220   19.6670   11.1430 H   0  0  0  0  0  0  0  0  0  0  0  0
    8.1880   18.2090   11.6130 H   0  0  0  0  0  0  0  0  0  0  0  0
    5.1290   20.1120   12.1100 H   0  0  0  0  0  0  0  0  0  0  0  0
    3.2040   19.2990   13.5100 H   0  0  0  0  0  0  0  0  0  0  0  0
    3.1450   16.8900   14.2300 H   0  0  0  0  0  0  0  0  0  0  0  0
    6.7360   16.0980   12.2800 H   0  0  0  0  0  0  0  0  0  0  0  0
    3.2830   18.4960    8.0630 H   0  0  0  0  0  0  0  0  0  0  0  0
    2.3670   16.2340    7.2220 H   0  0  0  0  0  0  0  0  0  0  0  0
    4.5950   15.4740    6.0610 H   0  0  0  0  0  0  0  0  0  0  0  0
    3.4980   18.3320    5.8280 H   0  0  0  0  0  0  0  0  0  0  0  0
    5.7590   18.6100    5.0280 H   0  0  0  0  0  0  0  0  0  0  0  0
    5.3680   15.8890    3.6600 H   0  0  0  0  0  0  0  0  0  0  0  0
    7.4430   18.0830    3.0430 H   0  0  0  0  0  0  0  0  0  0  0  0
    8.1990   16.1780    1.3510 H   0  0  0  0  0  0  0  0  0  0  0  0
    8.8280   16.0930    4.3570 H   0  0  0  0  0  0  0  0  0  0  0  0
   10.2600   14.6910    2.0130 H   0  0  0  0  0  0  0  0  0  0  0  0
   11.9150   15.7090    3.6430 H   0  0  0  0  0  0  0  0  0  0  0  0
   10.8060   15.7740    7.9050 H   0  0  0  0  0  0  0  0  0  0  0  0
   12.8090   16.3040    9.2580 H   0  0  0  0  0  0  0  0  0  0  0  0
   11.7690   13.7540    8.9390 H   0  0  0  0  0  0  0  0  0  0  0  0
   12.6140   11.4300    8.6640 H   0  0  0  0  0  0  0  0  0  0  0  0
   14.8160   11.0380    7.5570 H   0  0  0  0  0  0  0  0  0  0  0  0
   16.1770   12.9820    6.7690 H   0  0  0  0  0  0  0  0  0  0  0  0
   13.6860   16.8170    7.8450 H   0  0  0  0  0  0  0  0  0  0  0  0
    9.6020   19.2740    6.9100 H   0  0  0  0  0  0  0  0  0  0  0  0
    2.5720   17.4860    9.3310 H   0  0  0  0  0  0  0  0  0  0  0  0
    3.5630   15.4240    8.2150 H   0  0  0  0  0  0  0  0  0  0  0  0
    5.4000   16.7750    6.8930 H   0  0  0  0  0  0  0  0  0  0  0  0
    3.1790   16.9640    4.7770 H   0  0  0  0  0  0  0  0  0  0  0  0
    4.7200   18.4610    3.6240 H   0  0  0  0  0  0  0  0  0  0  0  0
    6.6200   16.3640    4.8030 H   0  0  0  0  0  0  0  0  0  0  0  0
    6.2640   17.3950    1.9330 H   0  0  0  0  0  0  0  0  0  0  0  0
    7.3860   15.0700    2.4450 H   0  0  0  0  0  0  0  0  0  0  0  0
    9.7310   16.9530    3.1150 H   0  0  0  0  0  0  0  0  0  0  0  0
    9.4310   13.8880    3.3430 H   0  0  0  0  0  0  0  0  0  0  0  0
   11.9020   13.9610    3.8140 H   0  0  0  0  0  0  0  0  0  0  0  0
  1  6  2  0  0  0  0
  1 18  1  0  0  0  0
  2 42  1  1  0  0  0
  2 31  1  0  0  0  0
  3 14  1  0  0  0  0
  4 41  1  0  0  0  0
  4 15  1  0  0  0  0
  5 43  1  0  0  0  0
  5  2  1  0  0  0  0
  6 10  1  0  0  0  0
  7  2  1  0  0  0  0
  7 11  1  0  0  0  0
  8 45  1  0  0  0  0
  9 19  2  0  0  0  0
 10 51  1  0  0  0  0
 10 14  2  0  0  0  0
 11  4  1  0  0  0  0
 12 31  1  0  0  0  0
 13 11  2  0  0  0  0
 14 52  1  0  0  0  0
 15 47  1  1  0  0  0
 15 17  1  0  0  0  0
 17 49  1  0  0  0  0
 17  1  1  0  0  0  0
 18  3  2  0  0  0  0
 19  8  1  0  0  0  0
 19 15  1  0  0  0  0
 20  8  1  0  0  0  0
 20 73  1  0  0  0  0
 21 74  1  0  0  0  0
 21 20  1  0  0  0  0
 22 75  1  0  0  0  0
 22 21  1  0  0  0  0
 23 57  1  0  0  0  0
 23 22  1  0  0  0  0
 24 58  1  0  0  0  0
 24 23  1  0  0  0  0
 25 24  1  0  0  0  0
 25 78  1  0  0  0  0
 26 60  1  0  0  0  0
 26 25  1  0  0  0  0
 27 26  1  0  0  0  0
 27 28  1  0  0  0  0
 28 62  1  0  0  0  0
 29 28  1  0  0  0  0
 29 82  1  0  0  0  0
 29 30  1  0  0  0  0
 30 32  1  0  0  0  0
 31 65  1  1  0  0  0
 31 33  1  0  0  0  0
 32 12  1  0  0  0  0
 32 16  2  0  0  0  0
 33 66  1  0  0  0  0
 34 33  1  0  0  0  0
 34 35  2  0  0  0  0
 35 67  1  0  0  0  0
 36 35  1  0  0  0  0
 36 68  1  0  0  0  0
 37 36  2  0  0  0  0
 38 39  2  0  0  0  0
 38 37  1  0  0  0  0
 39 34  1  0  0  0  0
 40 39  1  0  0  0  0
 44  7  1  0  0  0  0
 46 12  1  0  0  0  0
 48 17  1  0  0  0  0
 50  6  1  0  0  0  0
 53 18  1  0  0  0  0
 54 20  1  0  0  0  0
 55 21  1  0  0  0  0
 56 22  1  0  0  0  0
 59 25  1  0  0  0  0
 61 27  1  0  0  0  0
 63 29  1  0  0  0  0
 64 30  1  0  0  0  0
 69 37  1  0  0  0  0
 70 38  1  0  0  0  0
 71 33  1  0  0  0  0
 72  7  1  0  0  0  0
 76 23  1  0  0  0  0
 77 24  1  0  0  0  0
 79 26  1  0  0  0  0
 80 27  1  0  0  0  0
 81 28  1  0  0  0  0
 83 30  1  0  0  0  0
M  END
>  <IC50_NM>
1.1

>  <number_of_rotatable_bonds>
4

>  <charge>
0

>  <lm5_entropy_jk>
18.43900937288166

$$$$
