JAK1_3.pdb
 OpenBabel11252210453D

 57 61  0  0  1  0  0  0  0  0999 V2000
  -15.7550   37.8630   -3.2350 C   0  0  0  0  0  0  0  0  0  0  0  0
  -15.2920   36.4480   -3.5620 C   0  0  0  0  0  0  0  0  0  0  0  0
  -16.4720   35.5110   -3.7800 C   0  0  0  0  0  0  0  0  0  0  0  0
  -14.4140   35.9430   -2.3790 N   0  3  2  0  0  0  0  0  0  0  0  0
  -13.0670   36.6770   -2.2790 C   0  0  0  0  0  0  0  0  0  0  0  0
  -12.0450   35.6500   -1.7790 C   0  0  0  0  0  0  0  0  0  0  0  0
  -12.6910   34.2580   -1.8730 C   0  0  0  0  0  0  0  0  0  0  0  0
  -14.1040   34.4420   -2.4520 C   0  0  1  0  0  0  0  0  0  0  0  0
  -15.1560   33.6520   -1.6440 C   0  0  0  0  0  0  0  0  0  0  0  0
  -15.7630   34.2100   -0.7370 O   0  0  0  0  0  0  0  0  0  0  0  0
  -15.4340   32.3740   -2.0810 N   0  0  0  0  0  0  0  0  0  0  0  0
  -16.4490   31.5760   -1.3190 C   0  0  0  0  0  0  0  0  0  0  0  0
  -15.7460   30.5940   -0.3730 C   0  0  0  0  0  0  0  0  0  0  0  0
  -14.7850   29.6930   -1.1850 C   0  0  1  0  0  0  0  0  0  0  0  0
  -13.7470   30.5480   -1.9400 C   0  0  0  0  0  0  0  0  0  0  0  0
  -14.4990   31.5210   -2.8710 C   0  0  0  0  0  0  0  0  0  0  0  0
  -14.1570   28.7000   -0.2900 N   0  0  0  0  0  0  0  0  0  0  0  0
  -12.8500   28.7030    0.2910 C   0  0  0  0  0  0  0  0  0  0  0  0
  -12.5930   27.5530    0.9310 N   0  0  0  0  0  0  0  0  0  0  0  0
  -13.7160   26.7280    0.7340 C   0  0  0  0  0  0  0  0  0  0  0  0
  -14.7070   27.4420   -0.0210 C   0  0  0  0  0  0  0  0  0  0  0  0
  -15.9030   26.8100   -0.4040 C   0  0  0  0  0  0  0  0  0  0  0  0
  -17.0840   27.1350   -1.1380 C   0  0  0  0  0  0  0  0  0  0  0  0
  -17.8310   25.9690   -1.2480 C   0  0  0  0  0  0  0  0  0  0  0  0
  -17.1580   24.9120   -0.6080 N   0  0  0  0  0  0  0  0  0  0  0  0
  -15.9810   25.4150   -0.0490 C   0  0  0  0  0  0  0  0  0  0  0  0
  -15.0400   24.7010    0.6830 N   0  0  0  0  0  0  0  0  0  0  0  0
  -13.9420   25.3500    1.0680 C   0  0  0  0  0  0  0  0  0  0  0  0
  -14.2030   34.1070   -3.5230 H   0  0  0  0  0  0  0  0  0  0  0  0
  -17.5540   23.9730   -0.5010 H   0  0  0  0  0  0  0  0  0  0  0  0
  -14.6500   36.4600   -4.4880 H   0  0  0  0  0  0  0  0  0  0  0  0
  -14.9420   36.1430   -1.4670 H   0  0  0  0  0  0  0  0  0  0  0  0
  -12.7750   37.1300   -3.2640 H   0  0  0  0  0  0  0  0  0  0  0  0
  -13.1730   37.5280   -1.5410 H   0  0  0  0  0  0  0  0  0  0  0  0
  -11.7700   35.8860   -0.7140 H   0  0  0  0  0  0  0  0  0  0  0  0
  -11.0880   35.7200   -2.3590 H   0  0  0  0  0  0  0  0  0  0  0  0
  -12.0680   33.5590   -2.4920 H   0  0  0  0  0  0  0  0  0  0  0  0
  -12.7460   33.8080   -0.8470 H   0  0  0  0  0  0  0  0  0  0  0  0
  -17.0960   32.3010   -0.7630 H   0  0  0  0  0  0  0  0  0  0  0  0
  -17.0780   31.0410   -2.0860 H   0  0  0  0  0  0  0  0  0  0  0  0
  -15.1810   31.1570    0.4020 H   0  0  0  0  0  0  0  0  0  0  0  0
  -16.5150   29.9450    0.1140 H   0  0  0  0  0  0  0  0  0  0  0  0
  -15.3900   29.1280   -1.9590 H   0  0  0  0  0  0  0  0  0  0  0  0
  -13.1150   31.1420   -1.2410 H   0  0  0  0  0  0  0  0  0  0  0  0
  -13.0790   29.9040   -2.5700 H   0  0  0  0  0  0  0  0  0  0  0  0
  -15.1300   30.9480   -3.6080 H   0  0  0  0  0  0  0  0  0  0  0  0
  -13.7720   32.1320   -3.4520 H   0  0  0  0  0  0  0  0  0  0  0  0
  -12.1980   29.5570    0.1620 H   0  0  0  0  0  0  0  0  0  0  0  0
  -17.3550   28.0860   -1.5580 H   0  0  0  0  0  0  0  0  0  0  0  0
  -18.7740   25.8230   -1.7530 H   0  0  0  0  0  0  0  0  0  0  0  0
  -13.1880   24.7830    1.6380 H   0  0  0  0  0  0  0  0  0  0  0  0
  -16.1700   34.5450   -4.2490 H   0  0  0  0  0  0  0  0  0  0  0  0
  -17.0380   35.3060   -2.8430 H   0  0  0  0  0  0  0  0  0  0  0  0
  -17.1870   35.9990   -4.5000 H   0  0  0  0  0  0  0  0  0  0  0  0
  -14.9110   38.5370   -2.9530 H   0  0  0  0  0  0  0  0  0  0  0  0
  -16.2380   38.3060   -4.1480 H   0  0  0  0  0  0  0  0  0  0  0  0
  -16.5150   37.8660   -2.4200 H   0  0  0  0  0  0  0  0  0  0  0  0
  1  2  1  0  0  0  0
  2  3  1  0  0  0  0
  2  4  1  0  0  0  0
  4  8  1  0  0  0  0
  4 32  1  1  0  0  0
  5  6  1  0  0  0  0
  5  4  1  0  0  0  0
  6  7  1  0  0  0  0
  7  8  1  0  0  0  0
  8 29  1  6  0  0  0
  9  8  1  0  0  0  0
  9 11  1  0  0  0  0
  9 10  2  0  0  0  0
 12 13  1  0  0  0  0
 12 11  1  0  0  0  0
 13 14  1  0  0  0  0
 14 15  1  0  0  0  0
 14 17  1  0  0  0  0
 14 43  1  6  0  0  0
 15 16  1  0  0  0  0
 16 11  1  0  0  0  0
 18 17  1  0  0  0  0
 18 19  2  0  0  0  0
 20 21  2  0  0  0  0
 20 28  1  0  0  0  0
 20 19  1  0  0  0  0
 21 22  1  0  0  0  0
 21 17  1  0  0  0  0
 22 23  1  0  0  0  0
 22 26  2  0  0  0  0
 23 24  2  0  0  0  0
 24 25  1  0  0  0  0
 26 25  1  0  0  0  0
 26 27  1  0  0  0  0
 28 27  2  0  0  0  0
 30 25  1  0  0  0  0
 31  2  1  0  0  0  0
 33  5  1  0  0  0  0
 34  5  1  0  0  0  0
 35  6  1  0  0  0  0
 36  6  1  0  0  0  0
 37  7  1  0  0  0  0
 38  7  1  0  0  0  0
 39 12  1  0  0  0  0
 40 12  1  0  0  0  0
 41 13  1  0  0  0  0
 42 13  1  0  0  0  0
 44 15  1  0  0  0  0
 45 15  1  0  0  0  0
 46 16  1  0  0  0  0
 47 16  1  0  0  0  0
 48 18  1  0  0  0  0
 49 23  1  0  0  0  0
 50 24  1  0  0  0  0
 51 28  1  0  0  0  0
 52  3  1  0  0  0  0
 53  3  1  0  0  0  0
 54  3  1  0  0  0  0
 55  1  1  0  0  0  0
 56  1  1  0  0  0  0
 57  1  1  0  0  0  0
M  CHG  1   4   1
M  END
>  <charge>
1

>  <pKi>
7.66

>  <number_of_rotatable_bonds>
3

>  <lm5_entropy_jk>
35.45414597483307

$$$$
