3LK8
 OpenBabel11252210453D

 29 29  0  0  0  0  0  0  0  0999 V2000
    5.5790   25.5160    4.6800 C   0  0  0  0  0  0  0  0  0  0  0  0
    7.6880   26.8350    2.2310 N   0  0  0  0  0  0  0  0  0  0  0  0
    9.3470   26.2050    4.1540 O   0  0  0  0  0  0  0  0  0  0  0  0
    7.9500   26.5870    3.9180 S   0  0  0  0  0  0  0  0  0  0  0  0
    4.7580   24.4740    5.1100 C   0  0  0  0  0  0  0  0  0  0  0  0
    8.5910   23.8070    1.3680 N   0  0  0  0  0  0  0  0  0  0  0  0
    7.5200   27.8250    4.5650 O   0  0  0  0  0  0  0  0  0  0  0  0
    6.9120   25.2840    4.3100 C   0  0  0  0  0  0  0  0  0  0  0  0
    4.6610   22.0700    5.6520 O   0  0  0  0  0  0  0  0  0  0  0  0
    5.2830   23.1730    5.1470 C   0  0  0  0  0  0  0  0  0  0  0  0
    6.9500   24.7860    0.1190 O   0  0  0  0  0  0  0  0  0  0  0  0
    6.5830   22.9020    4.6600 C   0  0  0  0  0  0  0  0  0  0  0  0
    8.0980   22.6180    0.7890 O   0  0  0  0  0  0  0  0  0  0  0  0
    7.3910   23.9580    4.2680 C   0  0  0  0  0  0  0  0  0  0  0  0
    8.6130   26.2550    1.2400 C   0  0  0  0  0  0  0  0  0  0  0  0
    7.9650   24.9460    0.7720 C   0  0  0  0  0  0  0  0  0  0  0  0
    3.2900   22.1740    6.1230 C   0  0  0  0  0  0  0  0  0  0  0  0
    5.1530   26.5250    4.6440 H   0  0  0  0  0  0  0  0  0  0  0  0
    7.3430   27.7700    1.9390 H   0  0  0  0  0  0  0  0  0  0  0  0
    3.7260   24.6790    5.3920 H   0  0  0  0  0  0  0  0  0  0  0  0
    9.6310   23.7450    1.4470 H   0  0  0  0  0  0  0  0  0  0  0  0
    6.9330   21.8710    4.5710 H   0  0  0  0  0  0  0  0  0  0  0  0
    8.3320   21.8810    1.5560 H   0  0  0  0  0  0  0  0  0  0  0  0
    8.4100   23.7380    3.9190 H   0  0  0  0  0  0  0  0  0  0  0  0
    8.7510   26.9370    0.3500 H   0  0  0  0  0  0  0  0  0  0  0  0
    9.6450   26.0800    1.6660 H   0  0  0  0  0  0  0  0  0  0  0  0
    3.0850   21.1120    6.4030 H   0  0  0  0  0  0  0  0  0  0  0  0
    2.6270   22.5130    5.2990 H   0  0  0  0  0  0  0  0  0  0  0  0
    3.2450   22.8460    7.0040 H   0  0  0  0  0  0  0  0  0  0  0  0
  1  8  2  0  0  0  0
  1  5  1  0  0  0  0
  1 18  1  0  0  0  0
  2 15  1  0  0  0  0
  2  4  1  0  0  0  0
  2 19  1  0  0  0  0
  3  4  2  0  0  0  0
  4  8  1  0  0  0  0
  4  7  2  0  0  0  0
  5 10  2  0  0  0  0
  5 20  1  0  0  0  0
  6 13  1  0  0  0  0
  6 16  1  0  0  0  0
  6 21  1  0  0  0  0
  8 14  1  0  0  0  0
  9 10  1  0  0  0  0
  9 17  1  0  0  0  0
 10 12  1  0  0  0  0
 11 16  2  0  0  0  0
 12 14  2  0  0  0  0
 12 22  1  0  0  0  0
 13 23  1  0  0  0  0
 14 24  1  0  0  0  0
 15 16  1  0  0  0  0
 15 25  1  0  0  0  0
 15 26  1  0  0  0  0
 17 27  1  0  0  0  0
 17 28  1  0  0  0  0
 17 29  1  0  0  0  0
M  END
>  <lm5_entropy_jk>
30.773132133652176

>  <number_of_rotatable_bonds>
6

>  <deltaG_kcalmol>
-10.52

>  <charge>
0

$$$$
