6QBG
 OpenBabel11252210453D

 86 88  0  0  1  0  0  0  0  0999 V2000
    8.3130   18.3660    9.0210 N   0  0  0  0  0  0  0  0  0  0  0  0
    7.1670   17.9380    9.8810 C   0  0  2  0  0  0  0  0  0  0  0  0
   12.7410   16.0180    7.8870 C   0  0  0  0  0  0  0  0  0  0  0  0
   11.3930   16.4240    7.2540 C   0  0  1  0  0  0  0  0  0  0  0  0
   11.0700   17.9390    7.5160 C   0  0  2  0  0  0  0  0  0  0  0  0
    9.6660   18.3240    7.0250 C   0  0  0  0  0  0  0  0  0  0  0  0
    8.6160   17.6960    7.8680 C   0  0  0  0  0  0  0  0  0  0  0  0
   10.8220   15.0480    5.2430 C   0  0  0  0  0  0  0  0  0  0  0  0
   13.0890   14.5430    7.7700 C   0  0  0  0  0  0  0  0  0  0  0  0
   13.7120   14.0410    6.6170 C   0  0  0  0  0  0  0  0  0  0  0  0
   14.2710   12.7590    6.5980 C   0  0  0  0  0  0  0  0  0  0  0  0
   14.1840   11.9550    7.7450 C   0  0  0  0  0  0  0  0  0  0  0  0
   13.4430   12.3980    8.8530 C   0  0  0  0  0  0  0  0  0  0  0  0
   12.8990   13.6920    8.8640 C   0  0  0  0  0  0  0  0  0  0  0  0
   10.9030   15.0470    3.7310 C   0  0  0  0  0  0  0  0  0  0  0  0
    3.3730   17.6810    9.0520 C   0  0  0  0  0  0  0  0  0  0  0  0
    9.5300   15.1910    3.0090 C   0  0  0  0  0  0  0  0  0  0  0  0
    8.6660   16.3130    3.6370 C   0  0  0  0  0  0  0  0  0  0  0  0
    7.2430   16.3140    3.0430 C   0  0  0  0  0  0  0  0  0  0  0  0
    6.1910   16.8470    4.0470 C   0  0  0  0  0  0  0  0  0  0  0  0
    4.7960   16.2760    3.7050 C   0  0  0  0  0  0  0  0  0  0  0  0
    2.8270   16.3700    8.4350 C   0  0  0  0  0  0  0  0  0  0  0  0
    5.8230   18.2910    9.2060 C   0  0  0  0  0  0  0  0  0  0  0  0
    5.7110   19.2260    8.4310 O   0  0  0  0  0  0  0  0  0  0  0  0
   11.4290   16.1270    5.8200 N   0  0  0  0  0  0  0  0  0  0  0  0
    4.7490   17.4940    9.5520 N   0  0  0  0  0  0  0  0  0  0  0  0
    7.3230   18.4690   11.3340 C   0  0  0  0  0  0  0  0  0  0  0  0
    2.5790   16.4980    6.9060 C   0  0  0  0  0  0  0  0  0  0  0  0
    3.9040   16.4930    6.1080 C   0  0  0  0  0  0  0  0  0  0  0  0
    3.6670   16.8210    4.6120 C   0  0  0  0  0  0  0  0  0  0  0  0
   14.9550   12.2950    5.4600 C   0  0  0  0  0  0  0  0  0  0  0  0
   15.5770   11.0330    5.4770 C   0  0  0  0  0  0  0  0  0  0  0  0
   15.5380   10.2540    6.6460 C   0  0  0  0  0  0  0  0  0  0  0  0
   14.8550   10.7280    7.7820 C   0  0  0  0  0  0  0  0  0  0  0  0
    8.0960   16.6430    7.5710 O   0  0  0  0  0  0  0  0  0  0  0  0
   10.2210   14.2010    5.8750 O   0  0  0  0  0  0  0  0  0  0  0  0
   11.9750   18.7650    6.7980 O   0  0  0  0  0  0  0  0  0  0  0  0
    6.3430   17.8160   12.3130 C   0  0  0  0  0  0  0  0  0  0  0  0
    7.1110   19.9860   11.4190 C   0  0  0  0  0  0  0  0  0  0  0  0
    7.7330   20.5170   10.6910 H   0  0  0  0  0  0  0  0  0  0  0  0
    8.7030   19.3000    9.1230 H   0  0  0  0  0  0  0  0  0  0  0  0
    7.1550   16.8450    9.9300 H   0  0  0  0  0  0  0  0  0  0  0  0
   12.7480   16.3140    8.9420 H   0  0  0  0  0  0  0  0  0  0  0  0
   10.5910   15.8210    7.7110 H   0  0  0  0  0  0  0  0  0  0  0  0
   11.1550   18.1370    8.6000 H   0  0  0  0  0  0  0  0  0  0  0  0
    9.4980   17.9780    6.0050 H   0  0  0  0  0  0  0  0  0  0  0  0
   13.7820   14.6580    5.7360 H   0  0  0  0  0  0  0  0  0  0  0  0
   13.3150   11.7560    9.7160 H   0  0  0  0  0  0  0  0  0  0  0  0
   12.3680   14.0540    9.7410 H   0  0  0  0  0  0  0  0  0  0  0  0
   11.3890   14.1050    3.4600 H   0  0  0  0  0  0  0  0  0  0  0  0
    3.3520   18.4920    8.3050 H   0  0  0  0  0  0  0  0  0  0  0  0
    8.9940   14.2330    3.0770 H   0  0  0  0  0  0  0  0  0  0  0  0
    9.1430   17.2940    3.5000 H   0  0  0  0  0  0  0  0  0  0  0  0
    6.9700   15.2900    2.7570 H   0  0  0  0  0  0  0  0  0  0  0  0
    6.1750   17.9450    4.0350 H   0  0  0  0  0  0  0  0  0  0  0  0
    4.8230   15.1800    3.7750 H   0  0  0  0  0  0  0  0  0  0  0  0
    1.8830   16.1080    8.9370 H   0  0  0  0  0  0  0  0  0  0  0  0
   11.8800   16.7850    5.2040 H   0  0  0  0  0  0  0  0  0  0  0  0
    4.9600   16.6850   10.1320 H   0  0  0  0  0  0  0  0  0  0  0  0
    8.3450   18.2140   11.6600 H   0  0  0  0  0  0  0  0  0  0  0  0
    2.0040   17.4110    6.6880 H   0  0  0  0  0  0  0  0  0  0  0  0
    4.3960   15.5170    6.2100 H   0  0  0  0  0  0  0  0  0  0  0  0
    2.7100   16.3950    4.2770 H   0  0  0  0  0  0  0  0  0  0  0  0
   15.0090   12.9180    4.5690 H   0  0  0  0  0  0  0  0  0  0  0  0
   16.1080   10.6710    4.5950 H   0  0  0  0  0  0  0  0  0  0  0  0
   16.0480    9.2900    6.6780 H   0  0  0  0  0  0  0  0  0  0  0  0
   14.8730   10.1620    8.7100 H   0  0  0  0  0  0  0  0  0  0  0  0
   12.7030   19.0250    7.4210 H   0  0  0  0  0  0  0  0  0  0  0  0
    6.3930   16.7230   12.2550 H   0  0  0  0  0  0  0  0  0  0  0  0
    7.3180   20.3750   12.4240 H   0  0  0  0  0  0  0  0  0  0  0  0
   13.5400   16.6070    7.4260 H   0  0  0  0  0  0  0  0  0  0  0  0
    9.5120   19.4010    7.0400 H   0  0  0  0  0  0  0  0  0  0  0  0
   11.5850   15.8400    3.4220 H   0  0  0  0  0  0  0  0  0  0  0  0
    2.7270   18.0050    9.8840 H   0  0  0  0  0  0  0  0  0  0  0  0
    9.6790   15.3830    1.9350 H   0  0  0  0  0  0  0  0  0  0  0  0
    8.5890   16.1510    4.7220 H   0  0  0  0  0  0  0  0  0  0  0  0
    7.2150   16.9000    2.1130 H   0  0  0  0  0  0  0  0  0  0  0  0
    6.4570   16.5530    5.0730 H   0  0  0  0  0  0  0  0  0  0  0  0
    4.5640   16.4950    2.6560 H   0  0  0  0  0  0  0  0  0  0  0  0
    3.5090   15.5330    8.6440 H   0  0  0  0  0  0  0  0  0  0  0  0
    1.9490   15.6640    6.5620 H   0  0  0  0  0  0  0  0  0  0  0  0
    4.6150   17.2180    6.5330 H   0  0  0  0  0  0  0  0  0  0  0  0
    3.5740   17.9090    4.4810 H   0  0  0  0  0  0  0  0  0  0  0  0
    5.3050   18.1150   12.1160 H   0  0  0  0  0  0  0  0  0  0  0  0
    6.0720   20.2480   11.1820 H   0  0  0  0  0  0  0  0  0  0  0  0
    6.5660   18.1100   13.3470 H   0  0  0  0  0  0  0  0  0  0  0  0
  1 41  1  0  0  0  0
  1  2  1  0  0  0  0
  2 42  1  1  0  0  0
  2 27  1  0  0  0  0
  3 43  1  0  0  0  0
  4  5  1  0  0  0  0
  4 44  1  1  0  0  0
  4  3  1  0  0  0  0
  5 45  1  1  0  0  0
  6  5  1  0  0  0  0
  6  7  1  0  0  0  0
  7  1  1  0  0  0  0
  8 25  1  0  0  0  0
  8 36  2  0  0  0  0
  9  3  1  0  0  0  0
  9 14  2  0  0  0  0
 10 11  2  0  0  0  0
 10  9  1  0  0  0  0
 11 12  1  0  0  0  0
 12 34  1  0  0  0  0
 12 13  2  0  0  0  0
 13 48  1  0  0  0  0
 14 13  1  0  0  0  0
 14 49  1  0  0  0  0
 15  8  1  0  0  0  0
 16 26  1  0  0  0  0
 16 74  1  0  0  0  0
 17 18  1  0  0  0  0
 17 15  1  0  0  0  0
 18 53  1  0  0  0  0
 18 76  1  0  0  0  0
 19 18  1  0  0  0  0
 19 20  1  0  0  0  0
 20 78  1  0  0  0  0
 21 20  1  0  0  0  0
 21 30  1  0  0  0  0
 22 57  1  0  0  0  0
 22 80  1  0  0  0  0
 22 16  1  0  0  0  0
 23 26  1  0  0  0  0
 23  2  1  0  0  0  0
 24 23  2  0  0  0  0
 25  4  1  0  0  0  0
 26 59  1  0  0  0  0
 27 60  1  0  0  0  0
 27 38  1  0  0  0  0
 28 22  1  0  0  0  0
 29 28  1  0  0  0  0
 29 82  1  0  0  0  0
 30 83  1  0  0  0  0
 30 29  1  0  0  0  0
 31 32  2  0  0  0  0
 31 11  1  0  0  0  0
 32 33  1  0  0  0  0
 33 66  1  0  0  0  0
 33 34  2  0  0  0  0
 34 67  1  0  0  0  0
 35  7  2  0  0  0  0
 37  5  1  0  0  0  0
 37 68  1  0  0  0  0
 38 69  1  0  0  0  0
 38 86  1  0  0  0  0
 39 27  1  0  0  0  0
 39 70  1  0  0  0  0
 40 39  1  0  0  0  0
 46  6  1  0  0  0  0
 47 10  1  0  0  0  0
 50 15  1  0  0  0  0
 51 16  1  0  0  0  0
 52 17  1  0  0  0  0
 54 19  1  0  0  0  0
 55 20  1  0  0  0  0
 56 21  1  0  0  0  0
 58 25  1  0  0  0  0
 61 28  1  0  0  0  0
 62 29  1  0  0  0  0
 63 30  1  0  0  0  0
 64 31  1  0  0  0  0
 65 32  1  0  0  0  0
 71  3  1  0  0  0  0
 72  6  1  0  0  0  0
 73 15  1  0  0  0  0
 75 17  1  0  0  0  0
 77 19  1  0  0  0  0
 79 21  1  0  0  0  0
 81 28  1  0  0  0  0
 84 38  1  0  0  0  0
 85 39  1  0  0  0  0
M  END
>  <IC50_NM>
0.6

>  <number_of_rotatable_bonds>
3

>  <charge>
0

>  <lm5_entropy_jk>
30.51387600249522

$$$$
