6QBG
 OpenBabel11252210453D

 86 88  0  0  1  0  0  0  0  0999 V2000
    8.2640   18.4260    8.8350 N   0  0  0  0  0  0  0  0  0  0  0  0
    7.1370   17.9710    9.7110 C   0  0  2  0  0  0  0  0  0  0  0  0
   12.8780   16.0180    7.9050 C   0  0  0  0  0  0  0  0  0  0  0  0
   11.5230   16.3800    7.2310 C   0  0  1  0  0  0  0  0  0  0  0  0
   11.1770   17.9020    7.4510 C   0  0  2  0  0  0  0  0  0  0  0  0
    9.7760   18.2870    6.9460 C   0  0  0  0  0  0  0  0  0  0  0  0
    8.7050   17.6780    7.7780 C   0  0  0  0  0  0  0  0  0  0  0  0
   11.0150   14.8990    5.2550 C   0  0  0  0  0  0  0  0  0  0  0  0
   13.3840   14.6130    7.6180 C   0  0  0  0  0  0  0  0  0  0  0  0
   14.2430   14.4010    6.5320 C   0  0  0  0  0  0  0  0  0  0  0  0
   14.7660   13.1260    6.2680 C   0  0  0  0  0  0  0  0  0  0  0  0
   14.4260   12.0420    7.1030 C   0  0  0  0  0  0  0  0  0  0  0  0
   13.5610   12.2470    8.1940 C   0  0  0  0  0  0  0  0  0  0  0  0
   13.0470   13.5350    8.4500 C   0  0  0  0  0  0  0  0  0  0  0  0
   11.0680   14.8640    3.7430 C   0  0  0  0  0  0  0  0  0  0  0  0
    3.3180   17.6950    9.0320 C   0  0  0  0  0  0  0  0  0  0  0  0
    9.6830   15.0070    3.0390 C   0  0  0  0  0  0  0  0  0  0  0  0
    8.8920   16.2210    3.5780 C   0  0  0  0  0  0  0  0  0  0  0  0
    7.4620   16.2550    2.9930 C   0  0  0  0  0  0  0  0  0  0  0  0
    6.4430   16.8560    3.9940 C   0  0  0  0  0  0  0  0  0  0  0  0
    5.0220   16.3690    3.6410 C   0  0  0  0  0  0  0  0  0  0  0  0
    2.7910   16.4530    8.2730 C   0  0  0  0  0  0  0  0  0  0  0  0
    5.7570   18.3630    9.1260 C   0  0  0  0  0  0  0  0  0  0  0  0
    5.5810   19.3640    8.4470 O   0  0  0  0  0  0  0  0  0  0  0  0
   11.5560   16.0390    5.7990 N   0  0  0  0  0  0  0  0  0  0  0  0
    4.7220   17.5060    9.4410 N   0  0  0  0  0  0  0  0  0  0  0  0
    7.3670   18.4070   11.1860 C   0  0  0  0  0  0  0  0  0  0  0  0
    2.6830   16.6880    6.7410 C   0  0  0  0  0  0  0  0  0  0  0  0
    4.0500   16.5900    6.0230 C   0  0  0  0  0  0  0  0  0  0  0  0
    3.9170   16.9880    4.5280 C   0  0  0  0  0  0  0  0  0  0  0  0
   15.6290   12.9300    5.1760 C   0  0  0  0  0  0  0  0  0  0  0  0
   16.1580   11.6540    4.9130 C   0  0  0  0  0  0  0  0  0  0  0  0
   15.8220   10.5730    5.7450 C   0  0  0  0  0  0  0  0  0  0  0  0
   14.9580   10.7670    6.8380 C   0  0  0  0  0  0  0  0  0  0  0  0
    8.2720   16.5740    7.5400 O   0  0  0  0  0  0  0  0  0  0  0  0
   10.5050   14.0100    5.9120 O   0  0  0  0  0  0  0  0  0  0  0  0
   12.0800   18.7140    6.7120 O   0  0  0  0  0  0  0  0  0  0  0  0
    6.4600   17.6740   12.1800 C   0  0  0  0  0  0  0  0  0  0  0  0
    7.1410   19.9120   11.3780 C   0  0  0  0  0  0  0  0  0  0  0  0
    7.7220   20.4950   10.6540 H   0  0  0  0  0  0  0  0  0  0  0  0
    8.6240   19.3740    8.9250 H   0  0  0  0  0  0  0  0  0  0  0  0
    7.1080   16.8790    9.7020 H   0  0  0  0  0  0  0  0  0  0  0  0
   12.7860   16.1590    8.9900 H   0  0  0  0  0  0  0  0  0  0  0  0
   10.7290   15.7750    7.7000 H   0  0  0  0  0  0  0  0  0  0  0  0
   11.2590   18.1290    8.5300 H   0  0  0  0  0  0  0  0  0  0  0  0
    9.6160   17.9300    5.9280 H   0  0  0  0  0  0  0  0  0  0  0  0
   14.4920   15.2300    5.8830 H   0  0  0  0  0  0  0  0  0  0  0  0
   13.2910   11.4160    8.8430 H   0  0  0  0  0  0  0  0  0  0  0  0
   12.3890   13.6970    9.3000 H   0  0  0  0  0  0  0  0  0  0  0  0
   11.5290   13.9040    3.4860 H   0  0  0  0  0  0  0  0  0  0  0  0
    3.2220   18.5970    8.4060 H   0  0  0  0  0  0  0  0  0  0  0  0
    9.1080   14.0850    3.2100 H   0  0  0  0  0  0  0  0  0  0  0  0
    9.4200   17.1590    3.3560 H   0  0  0  0  0  0  0  0  0  0  0  0
    7.1450   15.2370    2.7340 H   0  0  0  0  0  0  0  0  0  0  0  0
    6.4920   17.9530    3.9760 H   0  0  0  0  0  0  0  0  0  0  0  0
    4.9770   15.2730    3.7080 H   0  0  0  0  0  0  0  0  0  0  0  0
    1.7900   16.2090    8.6610 H   0  0  0  0  0  0  0  0  0  0  0  0
   11.8610   16.7420    5.1460 H   0  0  0  0  0  0  0  0  0  0  0  0
    4.9800   16.6580    9.9440 H   0  0  0  0  0  0  0  0  0  0  0  0
    8.4100   18.1490   11.4350 H   0  0  0  0  0  0  0  0  0  0  0  0
    2.2200   17.6650    6.5370 H   0  0  0  0  0  0  0  0  0  0  0  0
    4.4470   15.5710    6.1130 H   0  0  0  0  0  0  0  0  0  0  0  0
    2.9410   16.6660    4.1390 H   0  0  0  0  0  0  0  0  0  0  0  0
   15.8930   13.7700    4.5350 H   0  0  0  0  0  0  0  0  0  0  0  0
   16.8300   11.5040    4.0660 H   0  0  0  0  0  0  0  0  0  0  0  0
   16.2340    9.5820    5.5450 H   0  0  0  0  0  0  0  0  0  0  0  0
   14.7140    9.9280    7.4850 H   0  0  0  0  0  0  0  0  0  0  0  0
   12.7240   19.0990    7.3650 H   0  0  0  0  0  0  0  0  0  0  0  0
    6.5760   16.5870   12.0990 H   0  0  0  0  0  0  0  0  0  0  0  0
    7.3950   20.2420   12.3920 H   0  0  0  0  0  0  0  0  0  0  0  0
   13.6390   16.7410    7.6000 H   0  0  0  0  0  0  0  0  0  0  0  0
    9.6260   19.3660    6.9430 H   0  0  0  0  0  0  0  0  0  0  0  0
   11.7580   15.6350    3.3960 H   0  0  0  0  0  0  0  0  0  0  0  0
    2.7060   17.8730    9.9310 H   0  0  0  0  0  0  0  0  0  0  0  0
    9.8080   15.0910    1.9480 H   0  0  0  0  0  0  0  0  0  0  0  0
    8.8250   16.1480    4.6730 H   0  0  0  0  0  0  0  0  0  0  0  0
    7.4450   16.8150    2.0470 H   0  0  0  0  0  0  0  0  0  0  0  0
    6.6800   16.5520    5.0240 H   0  0  0  0  0  0  0  0  0  0  0  0
    4.8210   16.6020    2.5890 H   0  0  0  0  0  0  0  0  0  0  0  0
    3.4100   15.5700    8.4960 H   0  0  0  0  0  0  0  0  0  0  0  0
    2.0000   15.9430    6.3060 H   0  0  0  0  0  0  0  0  0  0  0  0
    4.7920   17.2380    6.5120 H   0  0  0  0  0  0  0  0  0  0  0  0
    3.9280   18.0820    4.4310 H   0  0  0  0  0  0  0  0  0  0  0  0
    5.4010   17.9150   12.0230 H   0  0  0  0  0  0  0  0  0  0  0  0
    6.0880   20.1730   11.2110 H   0  0  0  0  0  0  0  0  0  0  0  0
    6.7020   17.9540   13.2140 H   0  0  0  0  0  0  0  0  0  0  0  0
  1 41  1  0  0  0  0
  1  2  1  0  0  0  0
  2 42  1  1  0  0  0
  2 27  1  0  0  0  0
  3 43  1  0  0  0  0
  4  5  1  0  0  0  0
  4 44  1  1  0  0  0
  4  3  1  0  0  0  0
  5 45  1  1  0  0  0
  6  5  1  0  0  0  0
  6  7  1  0  0  0  0
  7  1  1  0  0  0  0
  8 25  1  0  0  0  0
  8 36  2  0  0  0  0
  9  3  1  0  0  0  0
  9 14  2  0  0  0  0
 10 11  2  0  0  0  0
 10  9  1  0  0  0  0
 11 12  1  0  0  0  0
 12 34  1  0  0  0  0
 12 13  2  0  0  0  0
 13 48  1  0  0  0  0
 14 13  1  0  0  0  0
 14 49  1  0  0  0  0
 15  8  1  0  0  0  0
 16 26  1  0  0  0  0
 16 74  1  0  0  0  0
 17 18  1  0  0  0  0
 17 15  1  0  0  0  0
 18 53  1  0  0  0  0
 18 76  1  0  0  0  0
 19 18  1  0  0  0  0
 19 20  1  0  0  0  0
 20 78  1  0  0  0  0
 21 20  1  0  0  0  0
 21 30  1  0  0  0  0
 22 57  1  0  0  0  0
 22 80  1  0  0  0  0
 22 16  1  0  0  0  0
 23 26  1  0  0  0  0
 23  2  1  0  0  0  0
 24 23  2  0  0  0  0
 25  4  1  0  0  0  0
 26 59  1  0  0  0  0
 27 60  1  0  0  0  0
 27 38  1  0  0  0  0
 28 22  1  0  0  0  0
 29 28  1  0  0  0  0
 29 82  1  0  0  0  0
 30 83  1  0  0  0  0
 30 29  1  0  0  0  0
 31 32  2  0  0  0  0
 31 11  1  0  0  0  0
 32 33  1  0  0  0  0
 33 66  1  0  0  0  0
 33 34  2  0  0  0  0
 34 67  1  0  0  0  0
 35  7  2  0  0  0  0
 37  5  1  0  0  0  0
 37 68  1  0  0  0  0
 38 69  1  0  0  0  0
 38 86  1  0  0  0  0
 39 27  1  0  0  0  0
 39 70  1  0  0  0  0
 40 39  1  0  0  0  0
 46  6  1  0  0  0  0
 47 10  1  0  0  0  0
 50 15  1  0  0  0  0
 51 16  1  0  0  0  0
 52 17  1  0  0  0  0
 54 19  1  0  0  0  0
 55 20  1  0  0  0  0
 56 21  1  0  0  0  0
 58 25  1  0  0  0  0
 61 28  1  0  0  0  0
 62 29  1  0  0  0  0
 63 30  1  0  0  0  0
 64 31  1  0  0  0  0
 65 32  1  0  0  0  0
 71  3  1  0  0  0  0
 72  6  1  0  0  0  0
 73 15  1  0  0  0  0
 75 17  1  0  0  0  0
 77 19  1  0  0  0  0
 79 21  1  0  0  0  0
 81 28  1  0  0  0  0
 84 38  1  0  0  0  0
 85 39  1  0  0  0  0
M  END
>  <IC50_NM>
0.6

>  <number_of_rotatable_bonds>
3

>  <charge>
0

>  <lm5_entropy_jk>
30.51387600249522

$$$$
