2IKI
 OpenBabel11252210453D

 35 36  0  0  0  0  0  0  0  0999 V2000
   18.4760   -6.9400   14.2210 C   0  0  0  0  0  0  0  0  0  0  0  0
   17.5680   -7.7610   15.0510 N   0  0  0  0  0  0  0  0  0  0  0  0
   17.5470   -9.1330   15.0720 C   0  0  0  0  0  0  0  0  0  0  0  0
   18.1680   -9.8050   14.2670 O   0  0  0  0  0  0  0  0  0  0  0  0
   17.7770   -6.1160   13.1320 C   0  0  0  0  0  0  0  0  0  0  0  0
   18.4840   -5.0910   12.4740 C   0  0  0  0  0  0  0  0  0  0  0  0
   19.7560   -4.8210   12.8290 F   0  0  0  0  0  0  0  0  0  0  0  0
   17.8840   -4.3310   11.4620 C   0  0  0  0  0  0  0  0  0  0  0  0
   16.5530   -4.5770   11.1000 C   0  0  0  0  0  0  0  0  0  0  0  0
   15.7070   -3.4790    9.7850 Br  0  0  0  0  0  0  0  0  0  0  0  0
   15.8310   -5.5910   11.7470 C   0  0  0  0  0  0  0  0  0  0  0  0
   16.4380   -6.3570   12.7610 C   0  0  0  0  0  0  0  0  0  0  0  0
   16.7100   -9.7800   16.1210 C   0  0  0  0  0  0  0  0  0  0  0  0
   16.3010  -11.1100   15.9110 C   0  0  0  0  0  0  0  0  0  0  0  0
   15.5330  -11.7630   16.8810 C   0  0  0  0  0  0  0  0  0  0  0  0
   15.1580  -11.0930   18.0410 C   0  0  0  0  0  0  0  0  0  0  0  0
   14.3080  -11.9550   19.2890 Cl  0  0  0  0  0  0  0  0  0  0  0  0
   15.5430   -9.7690   18.2420 C   0  0  0  0  0  0  0  0  0  0  0  0
   16.3560   -9.1190   17.3080 C   0  0  0  0  0  0  0  0  0  0  0  0
   16.9220   -7.8870   17.5890 O   0  0  0  0  0  0  0  0  0  0  0  0
   16.6400   -7.0060   18.7230 C   0  0  0  0  0  0  0  0  0  0  0  0
   15.5470   -5.9760   18.4890 C   0  0  0  0  0  0  0  0  0  0  0  0
   15.1620   -5.7530   17.3580 O   0  5  0  0  0  0  0  0  0  0  0  0
   15.0300   -5.5120   19.4920 O   0  0  0  0  0  0  0  0  0  0  0  0
   17.0700   -7.3390   15.8330 H   0  0  0  0  0  0  0  0  0  0  0  0
   16.3790   -7.5490   19.6300 H   0  0  0  0  0  0  0  0  0  0  0  0
   17.5260   -6.4140   18.9590 H   0  0  0  0  0  0  0  0  0  0  0  0
   16.5880  -11.6420   15.0010 H   0  0  0  0  0  0  0  0  0  0  0  0
   18.4380   -3.5210   10.9950 H   0  0  0  0  0  0  0  0  0  0  0  0
   14.7870   -5.7650   11.4880 H   0  0  0  0  0  0  0  0  0  0  0  0
   15.8650   -7.1270   13.2680 H   0  0  0  0  0  0  0  0  0  0  0  0
   15.2670   -9.2780   19.1610 H   0  0  0  0  0  0  0  0  0  0  0  0
   19.0400   -6.2580   14.8730 H   0  0  0  0  0  0  0  0  0  0  0  0
   19.2240   -7.6020   13.7640 H   0  0  0  0  0  0  0  0  0  0  0  0
   15.2390  -12.8010   16.7380 H   0  0  0  0  0  0  0  0  0  0  0  0
  1 33  1  0  0  0  0
  1  2  1  0  0  0  0
  2 25  1  0  0  0  0
  3  2  1  0  0  0  0
  3 13  1  0  0  0  0
  4  3  2  0  0  0  0
  5  1  1  0  0  0  0
  6  7  1  0  0  0  0
  6  5  2  0  0  0  0
  8  6  1  0  0  0  0
  9  8  2  0  0  0  0
  9 11  1  0  0  0  0
 10  9  1  0  0  0  0
 11 12  2  0  0  0  0
 12  5  1  0  0  0  0
 12 31  1  0  0  0  0
 13 19  1  0  0  0  0
 14 13  2  0  0  0  0
 14 15  1  0  0  0  0
 15 16  2  0  0  0  0
 16 18  1  0  0  0  0
 16 17  1  0  0  0  0
 18 32  1  0  0  0  0
 19 20  1  0  0  0  0
 19 18  2  0  0  0  0
 20 21  1  0  0  0  0
 21 27  1  0  0  0  0
 21 26  1  0  0  0  0
 22 21  1  0  0  0  0
 22 24  2  0  0  0  0
 23 22  1  0  0  0  0
 28 14  1  0  0  0  0
 29  8  1  0  0  0  0
 30 11  1  0  0  0  0
 34  1  1  0  0  0  0
 35 15  1  0  0  0  0
M  CHG  1  23  -1
M  END
>  <lm5_entropy_jk>
25.63780735381752

>  <number_of_rotatable_bonds>
7

>  <deltaG_kcalmol>
-10.21

>  <charge>
-1

$$$$
