2IKI
 OpenBabel11252210453D

 35 36  0  0  0  0  0  0  0  0999 V2000
   18.1660   -7.1580   14.3730 C   0  0  0  0  0  0  0  0  0  0  0  0
   17.2830   -8.0760   15.1420 N   0  0  0  0  0  0  0  0  0  0  0  0
   17.3960   -9.4460   15.1490 C   0  0  0  0  0  0  0  0  0  0  0  0
   18.1010  -10.0290   14.3460 O   0  0  0  0  0  0  0  0  0  0  0  0
   17.4660   -6.3000   13.3130 C   0  0  0  0  0  0  0  0  0  0  0  0
   18.1610   -5.2290   12.7230 C   0  0  0  0  0  0  0  0  0  0  0  0
   19.4040   -4.9320   13.1480 F   0  0  0  0  0  0  0  0  0  0  0  0
   17.5880   -4.4680   11.6960 C   0  0  0  0  0  0  0  0  0  0  0  0
   16.2800   -4.7390   11.2740 C   0  0  0  0  0  0  0  0  0  0  0  0
   15.4660   -3.6410    9.9390 Br  0  0  0  0  0  0  0  0  0  0  0  0
   15.5570   -5.7790   11.8770 C   0  0  0  0  0  0  0  0  0  0  0  0
   16.1510   -6.5580   12.8900 C   0  0  0  0  0  0  0  0  0  0  0  0
   16.6510  -10.2130   16.2000 C   0  0  0  0  0  0  0  0  0  0  0  0
   16.7660  -11.6200   16.1940 C   0  0  0  0  0  0  0  0  0  0  0  0
   16.1260  -12.3850   17.1800 C   0  0  0  0  0  0  0  0  0  0  0  0
   15.3570  -11.7660   18.1620 C   0  0  0  0  0  0  0  0  0  0  0  0
   14.5880  -12.7170   19.4100 Cl  0  0  0  0  0  0  0  0  0  0  0  0
   15.2350  -10.3790   18.1640 C   0  0  0  0  0  0  0  0  0  0  0  0
   15.8840   -9.6020   17.2060 C   0  0  0  0  0  0  0  0  0  0  0  0
   15.7120   -8.2400   17.2520 O   0  0  0  0  0  0  0  0  0  0  0  0
   16.0410   -7.4210   18.4260 C   0  0  0  0  0  0  0  0  0  0  0  0
   15.3600   -6.0490   18.4350 C   0  0  0  0  0  0  0  0  0  0  0  0
   14.9790   -5.5910   17.3770 O   0  5  0  0  0  0  0  0  0  0  0  0
   15.0300   -5.6000   19.5240 O   0  0  0  0  0  0  0  0  0  0  0  0
   16.6310   -7.7060   15.8320 H   0  0  0  0  0  0  0  0  0  0  0  0
   15.7620   -7.9130   19.3580 H   0  0  0  0  0  0  0  0  0  0  0  0
   17.1150   -7.2250   18.4810 H   0  0  0  0  0  0  0  0  0  0  0  0
   17.3610  -12.1260   15.4300 H   0  0  0  0  0  0  0  0  0  0  0  0
   18.1420   -3.6350   11.2710 H   0  0  0  0  0  0  0  0  0  0  0  0
   14.5270   -5.9720   11.5770 H   0  0  0  0  0  0  0  0  0  0  0  0
   15.5870   -7.3560   13.3570 H   0  0  0  0  0  0  0  0  0  0  0  0
   14.6360   -9.8920   18.9180 H   0  0  0  0  0  0  0  0  0  0  0  0
   18.6840   -6.4880   15.0760 H   0  0  0  0  0  0  0  0  0  0  0  0
   18.9570   -7.7440   13.8800 H   0  0  0  0  0  0  0  0  0  0  0  0
   16.2260  -13.4700   17.1790 H   0  0  0  0  0  0  0  0  0  0  0  0
  1 33  1  0  0  0  0
  1  2  1  0  0  0  0
  2 25  1  0  0  0  0
  3  2  1  0  0  0  0
  3 13  1  0  0  0  0
  4  3  2  0  0  0  0
  5  1  1  0  0  0  0
  6  7  1  0  0  0  0
  6  5  2  0  0  0  0
  8  6  1  0  0  0  0
  9  8  2  0  0  0  0
  9 11  1  0  0  0  0
 10  9  1  0  0  0  0
 11 12  2  0  0  0  0
 12  5  1  0  0  0  0
 12 31  1  0  0  0  0
 13 19  1  0  0  0  0
 14 13  2  0  0  0  0
 14 15  1  0  0  0  0
 15 16  2  0  0  0  0
 16 18  1  0  0  0  0
 16 17  1  0  0  0  0
 18 32  1  0  0  0  0
 19 20  1  0  0  0  0
 19 18  2  0  0  0  0
 20 21  1  0  0  0  0
 21 27  1  0  0  0  0
 21 26  1  0  0  0  0
 22 21  1  0  0  0  0
 22 24  2  0  0  0  0
 23 22  1  0  0  0  0
 28 14  1  0  0  0  0
 29  8  1  0  0  0  0
 30 11  1  0  0  0  0
 34  1  1  0  0  0  0
 35 15  1  0  0  0  0
M  CHG  1  23  -1
M  END
>  <lm5_entropy_jk>
25.63780735381752

>  <number_of_rotatable_bonds>
7

>  <deltaG_kcalmol>
-10.21

>  <charge>
-1

$$$$
