3QTR
 OpenBabel11252210453D

 34 36  0  0  1  0  0  0  0  0999 V2000
   65.8480  154.3540  -50.3370 N   0  0  0  0  0  0  0  0  0  0  0  0
   67.4640  153.5310  -51.9180 N   0  0  0  0  0  0  0  0  0  0  0  0
   64.3170  154.6660  -48.5540 N   0  0  0  0  0  0  0  0  0  0  0  0
   66.9750  153.5440  -50.6500 C   0  0  0  0  0  0  0  0  0  0  0  0
   67.4720  152.7200  -49.6150 C   0  0  0  0  0  0  0  0  0  0  0  0
   68.5290  151.7590  -49.6990 C   0  0  0  0  0  0  0  0  0  0  0  0
   68.6810  150.8060  -48.5470 C   0  0  0  0  0  0  0  0  0  0  0  0
   67.6050  149.9960  -48.1600 C   0  0  0  0  0  0  0  0  0  0  0  0
   67.7580  149.0920  -47.1060 C   0  0  0  0  0  0  0  0  0  0  0  0
   68.9890  148.9730  -46.4570 C   0  0  0  0  0  0  0  0  0  0  0  0
   70.0640  149.7750  -46.8480 C   0  0  0  0  0  0  0  0  0  0  0  0
   69.9120  150.6990  -47.8880 C   0  0  0  0  0  0  0  0  0  0  0  0
   65.4360  154.0650  -49.0750 C   0  0  0  0  0  0  0  0  0  0  0  0
   63.6360  154.3890  -47.3210 C   0  0  0  0  0  0  0  0  0  0  0  0
   62.6780  155.3560  -46.9350 C   0  0  0  0  0  0  0  0  0  0  0  0
   61.9720  155.1960  -45.7460 C   0  0  0  0  0  0  0  0  0  0  0  0
   62.2070  154.0840  -44.9290 C   0  0  0  0  0  0  0  0  0  0  0  0
   63.1350  153.1210  -45.3280 C   0  0  0  0  0  0  0  0  0  0  0  0
   63.8400  153.2510  -46.5310 C   0  0  0  0  0  0  0  0  0  0  0  0
   69.2780  151.6750  -50.6660 O   0  0  0  0  0  0  0  0  0  0  0  0
   66.5040  152.8680  -48.1910 S   0  0  0  0  0  0  0  0  0  0  0  0
   67.0890  154.1570  -52.6560 H   0  0  0  0  0  0  0  0  0  0  0  0
   68.3120  152.9900  -52.1280 H   0  0  0  0  0  0  0  0  0  0  0  0
   66.6420  150.0480  -48.6700 H   0  0  0  0  0  0  0  0  0  0  0  0
   66.9150  148.4840  -46.7750 H   0  0  0  0  0  0  0  0  0  0  0  0
   69.1030  148.2500  -45.6430 H   0  0  0  0  0  0  0  0  0  0  0  0
   71.0090  149.6780  -46.3160 H   0  0  0  0  0  0  0  0  0  0  0  0
   70.7460  151.3410  -48.1770 H   0  0  0  0  0  0  0  0  0  0  0  0
   63.7580  155.2770  -49.2060 H   0  0  0  0  0  0  0  0  0  0  0  0
   62.4770  156.2230  -47.5680 H   0  0  0  0  0  0  0  0  0  0  0  0
   61.2330  155.9480  -45.4530 H   0  0  0  0  0  0  0  0  0  0  0  0
   61.6700  153.9760  -43.9850 H   0  0  0  0  0  0  0  0  0  0  0  0
   63.3220  152.2500  -44.6930 H   0  0  0  0  0  0  0  0  0  0  0  0
   64.5110  152.4410  -46.8190 H   0  0  0  0  0  0  0  0  0  0  0  0
  1  4  1  0  0  0  0
  1 13  2  0  0  0  0
  2  4  1  0  0  0  0
  2 22  1  0  0  0  0
  2 23  1  0  0  0  0
  3 13  1  0  0  0  0
  3 14  1  0  0  0  0
  3 29  1  0  0  0  0
  4  5  2  0  0  0  0
  5 21  1  0  0  0  0
  6  5  1  0  0  0  0
  6  7  1  0  0  0  0
  6 20  2  0  0  0  0
  7  8  2  0  0  0  0
  7 12  1  0  0  0  0
  8  9  1  0  0  0  0
  8 24  1  0  0  0  0
  9 10  2  0  0  0  0
  9 25  1  0  0  0  0
 10 11  1  0  0  0  0
 10 26  1  0  0  0  0
 11 12  2  0  0  0  0
 11 27  1  0  0  0  0
 12 28  1  0  0  0  0
 13 21  1  0  0  0  0
 14 15  2  0  0  0  0
 14 19  1  0  0  0  0
 15 16  1  0  0  0  0
 15 30  1  0  0  0  0
 16 17  2  0  0  0  0
 16 31  1  0  0  0  0
 17 18  1  0  0  0  0
 17 32  1  0  0  0  0
 18 19  2  0  0  0  0
 18 33  1  0  0  0  0
 19 34  1  0  0  0  0
M  END
>  <lm5_entropy_jk>
21.136452688881562

>  <number_of_rotatable_bonds>
4

>  <IC50_NM>
930

>  <charge>
0

$$$$
