4EHZ
 OpenBabel11252210453D

 37 40  0  0  0  0  0  0  0  0999 V2000
  -11.4730   29.3370    0.8160 C   0  0  0  0  0  0  0  0  0  0  0  0
  -12.5800   28.3760    0.6050 C   0  0  0  0  0  0  0  0  0  0  0  0
  -12.4760   27.1270    1.0600 N   0  0  0  0  0  0  0  0  0  0  0  0
  -13.6460   26.5780    0.6870 C   0  0  0  0  0  0  0  0  0  0  0  0
  -14.0430   25.2540    0.9100 C   0  0  0  0  0  0  0  0  0  0  0  0
  -15.2340   24.7840    0.4620 N   0  0  0  0  0  0  0  0  0  0  0  0
  -16.0430   25.6490   -0.1840 C   0  0  0  0  0  0  0  0  0  0  0  0
  -15.7270   26.9810   -0.4030 C   0  0  0  0  0  0  0  0  0  0  0  0
  -14.4630   27.4480    0.0350 C   0  0  0  0  0  0  0  0  0  0  0  0
  -13.7840   28.6540   -0.0770 N   0  0  0  0  0  0  0  0  0  0  0  0
  -14.1610   29.9380   -0.6930 C   0  0  0  0  0  0  0  0  0  0  0  0
  -14.4480   29.8440   -2.2130 C   0  0  0  0  0  0  0  0  0  0  0  0
  -14.9470   31.2060   -2.8050 C   0  0  0  0  0  0  0  0  0  0  0  0
  -16.1850   31.7570   -2.0560 N   0  3  0  0  0  0  0  0  0  0  0  0
  -15.7620   31.9590   -0.5840 C   0  0  0  0  0  0  0  0  0  0  0  0
  -15.3020   30.6180    0.0870 C   0  0  0  0  0  0  0  0  0  0  0  0
  -16.8500   27.5780   -1.0980 C   0  0  0  0  0  0  0  0  0  0  0  0
  -17.7790   26.5670   -1.3170 C   0  0  0  0  0  0  0  0  0  0  0  0
  -17.2720   25.3880   -0.7400 N   0  0  0  0  0  0  0  0  0  0  0  0
  -13.3970   24.5660    1.4540 H   0  0  0  0  0  0  0  0  0  0  0  0
  -13.2930   30.6090   -0.6040 H   0  0  0  0  0  0  0  0  0  0  0  0
  -13.5300   29.5090   -2.7260 H   0  0  0  0  0  0  0  0  0  0  0  0
  -15.1680   29.0380   -2.4030 H   0  0  0  0  0  0  0  0  0  0  0  0
  -14.1450   31.9530   -2.7280 H   0  0  0  0  0  0  0  0  0  0  0  0
  -15.1840   31.0980   -3.8770 H   0  0  0  0  0  0  0  0  0  0  0  0
  -16.5460   32.6450   -2.4710 H   0  0  0  0  0  0  0  0  0  0  0  0
  -16.9790   31.0910   -2.1230 H   0  0  0  0  0  0  0  0  0  0  0  0
  -16.5960   32.4230   -0.0320 H   0  0  0  0  0  0  0  0  0  0  0  0
  -14.9450   32.6970   -0.5620 H   0  0  0  0  0  0  0  0  0  0  0  0
  -16.1220   29.8920    0.1800 H   0  0  0  0  0  0  0  0  0  0  0  0
  -14.9530   30.7830    1.1220 H   0  0  0  0  0  0  0  0  0  0  0  0
  -17.0020   28.6010   -1.4140 H   0  0  0  0  0  0  0  0  0  0  0  0
  -18.7390   26.5980   -1.8240 H   0  0  0  0  0  0  0  0  0  0  0  0
  -17.7310   24.4790   -0.7080 H   0  0  0  0  0  0  0  0  0  0  0  0
  -10.8940   29.0310    1.6970 H   0  0  0  0  0  0  0  0  0  0  0  0
  -11.8320   30.3470    1.0300 H   0  0  0  0  0  0  0  0  0  0  0  0
  -10.7830   29.3360   -0.0280 H   0  0  0  0  0  0  0  0  0  0  0  0
  1  2  1  0  0  0  0
  2 10  1  0  0  0  0
  2  3  2  0  0  0  0
  4  5  2  0  0  0  0
  4  9  1  0  0  0  0
  4  3  1  0  0  0  0
  5  6  1  0  0  0  0
  7  8  1  0  0  0  0
  7 19  1  0  0  0  0
  7  6  2  0  0  0  0
  8  9  2  0  0  0  0
  9 10  1  0  0  0  0
 11 12  1  0  0  0  0
 11 16  1  0  0  0  0
 11 10  1  0  0  0  0
 12 13  1  0  0  0  0
 13 14  1  0  0  0  0
 15 16  1  0  0  0  0
 15 14  1  0  0  0  0
 17 18  2  0  0  0  0
 17  8  1  0  0  0  0
 18 19  1  0  0  0  0
 20  5  1  0  0  0  0
 21 11  1  0  0  0  0
 22 12  1  0  0  0  0
 23 12  1  0  0  0  0
 24 13  1  0  0  0  0
 25 13  1  0  0  0  0
 26 14  1  0  0  0  0
 27 14  1  0  0  0  0
 28 15  1  0  0  0  0
 29 15  1  0  0  0  0
 30 16  1  0  0  0  0
 31 16  1  0  0  0  0
 32 17  1  0  0  0  0
 33 18  1  0  0  0  0
 34 19  1  0  0  0  0
 35  1  1  0  0  0  0
 36  1  1  0  0  0  0
 37  1  1  0  0  0  0
M  CHG  1  14   1
M  END
>  <charge>
1

>  <pKi>
8

>  <number_of_rotatable_bonds>
1

>  <lm5_entropy_jk>
22.786904138289753

$$$$
