1M2R
 OpenBabel11252210453D

 30 32  0  0  1  0  0  0  0  0999 V2000
   20.8250    7.8660   23.0590 C   0  0  0  0  0  0  0  0  0  0  0  0
   19.9810    8.7860   23.5720 O   0  0  0  0  0  0  0  0  0  0  0  0
   21.2960    7.8650   21.7440 C   0  0  0  0  0  0  0  0  0  0  0  0
   22.1840    6.8360   21.3230 C   0  0  0  0  0  0  0  0  0  0  0  0
   22.5500    5.8390   22.2310 C   0  0  0  0  0  0  0  0  0  0  0  0
   23.3690    4.8080   21.9280 O   0  0  0  0  0  0  0  0  0  0  0  0
   22.0660    5.8520   23.5840 C   0  0  0  0  0  0  0  0  0  0  0  0
   21.2250    6.8470   23.9910 C   0  0  0  0  0  0  0  0  0  0  0  0
   22.7060    6.8300   19.9440 C   0  0  0  0  0  0  0  0  0  0  0  0
   23.4270    5.8750   19.6000 O   0  0  0  0  0  0  0  0  0  0  0  0
   22.4050    7.9440   19.0460 C   0  0  0  0  0  0  0  0  0  0  0  0
   21.4360    8.9330   19.4370 C   0  0  0  0  0  0  0  0  0  0  0  0
   20.8660    8.8990   20.7910 C   0  0  0  0  0  0  0  0  0  0  0  0
   20.0500    9.7490   21.1830 O   0  0  0  0  0  0  0  0  0  0  0  0
   21.1040    9.9720   18.5550 C   0  0  0  0  0  0  0  0  0  0  0  0
   20.0440   10.8580   18.7580 N   0  0  0  0  0  0  0  0  0  0  0  0
   21.8430   10.1220   17.3230 C   0  0  0  0  0  0  0  0  0  0  0  0
   22.7930    9.2200   16.9670 C   0  0  0  0  0  0  0  0  0  0  0  0
   23.0740    8.0770   17.8110 C   0  0  0  0  0  0  0  0  0  0  0  0
   24.0030    7.1710   17.3460 N   0  0  0  0  0  0  0  0  0  0  0  0
   21.6200   10.9820   16.6860 H   0  0  0  0  0  0  0  0  0  0  0  0
   23.3580    9.3500   16.0370 H   0  0  0  0  0  0  0  0  0  0  0  0
   22.3800    5.0540   24.2690 H   0  0  0  0  0  0  0  0  0  0  0  0
   20.8430    6.8870   25.0190 H   0  0  0  0  0  0  0  0  0  0  0  0
   24.5210    7.3850   16.4940 H   0  0  0  0  0  0  0  0  0  0  0  0
   19.6490    9.4770   22.8570 H   0  0  0  0  0  0  0  0  0  0  0  0
   23.6710    4.8520   20.9250 H   0  0  0  0  0  0  0  0  0  0  0  0
   19.6020   10.8580   19.6880 H   0  0  0  0  0  0  0  0  0  0  0  0
   24.2650    6.3460   17.8970 H   0  0  0  0  0  0  0  0  0  0  0  0
   20.1500   11.8000   18.3260 H   0  0  0  0  0  0  0  0  0  0  0  0
  1  2  1  0  0  0  0
  1  3  2  0  0  0  0
  1  8  1  0  0  0  0
  2 26  1  0  0  0  0
  3  4  1  0  0  0  0
  3 13  1  0  0  0  0
  4  5  2  0  0  0  0
  4  9  1  0  0  0  0
  5  6  1  0  0  0  0
  5  7  1  0  0  0  0
  6 27  1  0  0  0  0
  7  8  2  0  0  0  0
  7 23  1  0  0  0  0
  8 24  1  0  0  0  0
  9 10  2  0  0  0  0
  9 11  1  0  0  0  0
 11 12  2  0  0  0  0
 11 19  1  0  0  0  0
 12 13  1  0  0  0  0
 12 15  1  0  0  0  0
 13 14  2  0  0  0  0
 15 16  1  0  0  0  0
 15 17  2  0  0  0  0
 16 28  1  0  0  0  0
 16 30  1  0  0  0  0
 17 18  1  0  0  0  0
 17 21  1  0  0  0  0
 18 19  2  0  0  0  0
 18 22  1  0  0  0  0
 19 20  1  0  0  0  0
 20 25  1  0  0  0  0
 20 29  1  0  0  0  0
M  END
>  <Ki_NM>
350

>  <charge>
0

>  <number_of_rotatable_bonds>
0

>  <lm5_entropy_jk>
7.1054

$$$$
