3NU3
 OpenBabel11252210453D

 70 72  0  0  1  0  0  0  0  0999 V2000
    8.5700   -6.6040   18.5040 C   0  0  0  0  0  0  0  0  0  0  0  0
    5.9370   -3.2170   17.0410 N   0  0  0  0  0  0  0  0  0  0  0  0
    7.1750   -5.0310   17.4440 O   0  0  0  0  0  0  0  0  0  0  0  0
    3.5150   -1.0670   13.1280 S   0  0  0  0  0  0  0  0  0  0  0  0
    9.5830   -5.0140   16.9280 C   0  0  0  0  0  0  0  0  0  0  0  0
    4.5600   -0.1060   14.0620 N   0  0  0  0  0  0  0  0  0  0  0  0
    6.7430   -4.4650   15.2370 O   0  0  0  0  0  0  0  0  0  0  0  0
    6.6100   -4.2660   16.4280 C   0  0  0  0  0  0  0  0  0  0  0  0
   -0.2730    3.0350   11.2070 N   0  0  0  0  0  0  0  0  0  0  0  0
    5.1500   -0.5300   17.6880 O   0  0  0  0  0  0  0  0  0  0  0  0
    8.3300   -5.8730   17.1640 C   0  0  1  0  0  0  0  0  0  0  0  0
    2.7990   -1.9550   14.0400 O   0  0  0  0  0  0  0  0  0  0  0  0
    4.8540   -2.4900   16.3120 C   0  0  2  0  0  0  0  0  0  0  0  0
    4.3580   -1.7610   12.1580 O   0  0  0  0  0  0  0  0  0  0  0  0
    5.2570   -0.9900   16.3260 C   0  0  1  0  0  0  0  0  0  0  0  0
    9.7310   -5.9990   19.1200 O   0  0  0  0  0  0  0  0  0  0  0  0
    3.4820   -2.8000   16.9420 C   0  0  0  0  0  0  0  0  0  0  0  0
    3.1570   -4.2630   16.8100 C   0  0  0  0  0  0  0  0  0  0  0  0
    3.3850   -5.1460   17.8750 C   0  0  0  0  0  0  0  0  0  0  0  0
    2.6520   -4.7550   15.5940 C   0  0  0  0  0  0  0  0  0  0  0  0
    3.1420   -6.5130   17.7140 C   0  0  0  0  0  0  0  0  0  0  0  0
    2.3940   -6.1180   15.4470 C   0  0  0  0  0  0  0  0  0  0  0  0
    2.6560   -7.0030   16.4990 C   0  0  0  0  0  0  0  0  0  0  0  0
    4.3520   -0.0220   15.5160 C   0  0  0  0  0  0  0  0  0  0  0  0
    5.5120    0.8370   13.4320 C   0  0  0  0  0  0  0  0  0  0  0  0
    7.0130    0.4630   13.5920 C   0  0  0  0  0  0  0  0  0  0  0  0
    2.4060    0.0490   12.4620 C   0  0  0  0  0  0  0  0  0  0  0  0
    1.1830    0.2440   13.1280 C   0  0  0  0  0  0  0  0  0  0  0  0
    0.2780    1.2020   12.7060 C   0  0  0  0  0  0  0  0  0  0  0  0
    0.5810    2.0030   11.5730 C   0  0  0  0  0  0  0  0  0  0  0  0
    1.7930    1.7800   10.8730 C   0  0  0  0  0  0  0  0  0  0  0  0
    2.6890    0.8220   11.3280 C   0  0  0  0  0  0  0  0  0  0  0  0
    7.3430   -0.9040   12.9780 C   0  0  0  0  0  0  0  0  0  0  0  0
    7.8510    1.5770   12.9380 C   0  0  0  0  0  0  0  0  0  0  0  0
   10.5300   -5.3650   18.0840 C   0  0  0  0  0  0  0  0  0  0  0  0
    8.7960   -7.6820   18.3420 H   0  0  0  0  0  0  0  0  0  0  0  0
    7.7450   -6.4460   19.2340 H   0  0  0  0  0  0  0  0  0  0  0  0
    5.8510   -3.2310   18.0760 H   0  0  0  0  0  0  0  0  0  0  0  0
    9.3190   -3.9310   16.9480 H   0  0  0  0  0  0  0  0  0  0  0  0
   10.0500   -5.2410   15.9430 H   0  0  0  0  0  0  0  0  0  0  0  0
   -1.1830    3.1090   11.6930 H   0  0  0  0  0  0  0  0  0  0  0  0
   -0.1930    3.4500   10.2770 H   0  0  0  0  0  0  0  0  0  0  0  0
    6.0050   -0.0070   17.8920 H   0  0  0  0  0  0  0  0  0  0  0  0
    8.0760   -6.5500   16.3230 H   0  0  0  0  0  0  0  0  0  0  0  0
    4.8390   -2.8220   15.2350 H   0  0  0  0  0  0  0  0  0  0  0  0
    6.3200   -0.8890   15.9970 H   0  0  0  0  0  0  0  0  0  0  0  0
    2.7000   -2.1990   16.4050 H   0  0  0  0  0  0  0  0  0  0  0  0
    3.4720   -2.4830   18.0120 H   0  0  0  0  0  0  0  0  0  0  0  0
    3.7530   -4.7710   18.8310 H   0  0  0  0  0  0  0  0  0  0  0  0
    2.4530   -4.0490   14.7760 H   0  0  0  0  0  0  0  0  0  0  0  0
    3.3310   -7.1970   18.5450 H   0  0  0  0  0  0  0  0  0  0  0  0
    1.9830   -6.4920   14.5130 H   0  0  0  0  0  0  0  0  0  0  0  0
    2.4810   -8.0730   16.3830 H   0  0  0  0  0  0  0  0  0  0  0  0
    3.2760   -0.2290   15.7520 H   0  0  0  0  0  0  0  0  0  0  0  0
    4.6060    1.0140   15.8690 H   0  0  0  0  0  0  0  0  0  0  0  0
    5.3640    1.8570   13.8800 H   0  0  0  0  0  0  0  0  0  0  0  0
    5.2940    0.9080   12.3350 H   0  0  0  0  0  0  0  0  0  0  0  0
    7.2670    0.4480   14.6830 H   0  0  0  0  0  0  0  0  0  0  0  0
    0.9390   -0.3790   13.9960 H   0  0  0  0  0  0  0  0  0  0  0  0
   -0.6650    1.3590   13.2270 H   0  0  0  0  0  0  0  0  0  0  0  0
    2.0300    2.3700    9.9850 H   0  0  0  0  0  0  0  0  0  0  0  0
    3.6340    0.6890   10.7920 H   0  0  0  0  0  0  0  0  0  0  0  0
    8.4440   -1.0550   12.9860 H   0  0  0  0  0  0  0  0  0  0  0  0
    6.8640   -1.7070   13.5760 H   0  0  0  0  0  0  0  0  0  0  0  0
    6.9810   -0.9500   11.9300 H   0  0  0  0  0  0  0  0  0  0  0  0
    8.9260    1.4170   13.1620 H   0  0  0  0  0  0  0  0  0  0  0  0
    7.7120    1.5850   11.8360 H   0  0  0  0  0  0  0  0  0  0  0  0
    7.5600    2.5740   13.3410 H   0  0  0  0  0  0  0  0  0  0  0  0
   10.9500   -4.4750   18.5870 H   0  0  0  0  0  0  0  0  0  0  0  0
   11.3110   -6.0920   17.7760 H   0  0  0  0  0  0  0  0  0  0  0  0
  1 11  1  0  0  0  0
  1 16  1  0  0  0  0
  1 36  1  0  0  0  0
  1 37  1  0  0  0  0
  2  8  1  0  0  0  0
  2 13  1  0  0  0  0
  2 38  1  0  0  0  0
  3  8  1  0  0  0  0
  3 11  1  0  0  0  0
  4  6  1  0  0  0  0
  4 12  2  0  0  0  0
  4 14  2  0  0  0  0
  4 27  1  0  0  0  0
  5 11  1  0  0  0  0
  5 35  1  0  0  0  0
  5 39  1  0  0  0  0
  5 40  1  0  0  0  0
  6 24  1  0  0  0  0
  6 25  1  0  0  0  0
  7  8  2  0  0  0  0
  9 30  1  0  0  0  0
  9 41  1  0  0  0  0
  9 42  1  0  0  0  0
 10 15  1  0  0  0  0
 10 43  1  0  0  0  0
 11 44  1  6  0  0  0
 13 15  1  0  0  0  0
 13 17  1  0  0  0  0
 13 45  1  6  0  0  0
 15 24  1  0  0  0  0
 15 46  1  6  0  0  0
 16 35  1  0  0  0  0
 17 18  1  0  0  0  0
 17 47  1  0  0  0  0
 17 48  1  0  0  0  0
 18 19  2  0  0  0  0
 18 20  1  0  0  0  0
 19 21  1  0  0  0  0
 19 49  1  0  0  0  0
 20 22  2  0  0  0  0
 20 50  1  0  0  0  0
 21 23  2  0  0  0  0
 21 51  1  0  0  0  0
 22 23  1  0  0  0  0
 22 52  1  0  0  0  0
 23 53  1  0  0  0  0
 24 54  1  0  0  0  0
 24 55  1  0  0  0  0
 25 26  1  0  0  0  0
 25 56  1  0  0  0  0
 25 57  1  0  0  0  0
 26 33  1  0  0  0  0
 26 34  1  0  0  0  0
 26 58  1  0  0  0  0
 27 28  2  0  0  0  0
 27 32  1  0  0  0  0
 28 29  1  0  0  0  0
 28 59  1  0  0  0  0
 29 30  2  0  0  0  0
 29 60  1  0  0  0  0
 30 31  1  0  0  0  0
 31 32  2  0  0  0  0
 31 61  1  0  0  0  0
 32 62  1  0  0  0  0
 33 63  1  0  0  0  0
 33 64  1  0  0  0  0
 33 65  1  0  0  0  0
 34 66  1  0  0  0  0
 34 67  1  0  0  0  0
 34 68  1  0  0  0  0
 35 69  1  0  0  0  0
 35 70  1  0  0  0  0
M  END
>  <charge>
0

>  <KI_NM>
0.18

>  <number_of_rotatable_bonds>
13

>  <lm5_entropy_jk>
43.32186921337585

>  <ligand_crystal_conformation>
B

$$$$
