4laz.pdb
 OpenBabel11252210453D

 35 36  0  0  0  0  0  0  0  0999 V2000
   14.1590  -11.8220   18.8150 Cl  0  0  0  0  0  0  0  0  0  0  0  0
   17.0340   -6.6640   12.5480 C   0  0  0  0  0  0  0  0  0  0  0  0
   18.1700   -6.0830   13.1340 C   0  0  0  0  0  0  0  0  0  0  0  0
   18.6450   -4.8580   12.6410 C   0  0  0  0  0  0  0  0  0  0  0  0
   16.3270   -5.9930   11.5460 C   0  0  0  0  0  0  0  0  0  0  0  0
   17.9610   -4.1910   11.6180 C   0  0  0  0  0  0  0  0  0  0  0  0
   16.7900   -4.7500   11.1190 C   0  0  0  0  0  0  0  0  0  0  0  0
   18.8900   -6.7500   14.2900 C   0  0  0  0  0  0  0  0  0  0  0  0
   17.9750   -7.4850   15.1840 N   0  0  0  0  0  0  0  0  0  0  0  0
   17.8070   -8.8610   15.0720 C   0  0  0  0  0  0  0  0  0  0  0  0
   18.3440   -9.4860   14.1560 O   0  0  0  0  0  0  0  0  0  0  0  0
   16.4860   -8.9630   17.2870 C   0  0  0  0  0  0  0  0  0  0  0  0
   16.9490   -9.5510   16.0760 C   0  0  0  0  0  0  0  0  0  0  0  0
   16.5970  -10.8830   15.8040 C   0  0  0  0  0  0  0  0  0  0  0  0
   15.5910   -9.6620   18.1270 C   0  0  0  0  0  0  0  0  0  0  0  0
   15.7620  -11.6080   16.6560 C   0  0  0  0  0  0  0  0  0  0  0  0
   15.2610  -10.9610   17.7850 C   0  0  0  0  0  0  0  0  0  0  0  0
   17.0080   -7.7520   17.5520 O   0  0  0  0  0  0  0  0  0  0  0  0
   16.6750   -7.0030   18.7640 C   0  0  0  0  0  0  0  0  0  0  0  0
   15.5340   -5.9680   18.4380 C   0  0  0  0  0  0  0  0  0  0  0  0
   15.0190   -5.4500   19.4500 O   0  0  0  0  0  0  0  0  0  0  0  0
   15.2300   -5.7760   17.2550 O   0  5  0  0  0  0  0  0  0  0  0  0
   15.5770   -3.5990    9.8080 I   0  0  0  0  0  0  0  0  0  0  0  0
   17.6600   -6.5230   18.9580 H   0  0  0  0  0  0  0  0  0  0  0  0
   16.6890   -7.6430   12.8850 H   0  0  0  0  0  0  0  0  0  0  0  0
   19.5210   -4.3840   13.0830 H   0  0  0  0  0  0  0  0  0  0  0  0
   15.4150   -6.4320   11.1280 H   0  0  0  0  0  0  0  0  0  0  0  0
   18.3260   -3.2240   11.2610 H   0  0  0  0  0  0  0  0  0  0  0  0
   19.4230   -5.9740   14.9080 H   0  0  0  0  0  0  0  0  0  0  0  0
   17.5140   -6.9230   15.9100 H   0  0  0  0  0  0  0  0  0  0  0  0
   16.9700  -11.3750   14.8960 H   0  0  0  0  0  0  0  0  0  0  0  0
   15.1910   -9.2180   19.0360 H   0  0  0  0  0  0  0  0  0  0  0  0
   15.5090  -12.6460   16.4350 H   0  0  0  0  0  0  0  0  0  0  0  0
   16.4110   -7.6860   19.5860 H   0  0  0  0  0  0  0  0  0  0  0  0
   19.6670   -7.4630   13.8890 H   0  0  0  0  0  0  0  0  0  0  0  0
  1 17  1  0  0  0  0
  2  3  2  0  0  0  0
  2  5  1  0  0  0  0
  2 25  1  0  0  0  0
  3  4  1  0  0  0  0
  3  8  1  0  0  0  0
  4  6  2  0  0  0  0
  4 26  1  0  0  0  0
  5  7  2  0  0  0  0
  5 27  1  0  0  0  0
  6  7  1  0  0  0  0
  6 28  1  0  0  0  0
  7 23  1  0  0  0  0
  8  9  1  0  0  0  0
  8 29  1  0  0  0  0
  8 35  1  0  0  0  0
  9 10  1  0  0  0  0
  9 30  1  0  0  0  0
 10 11  2  0  0  0  0
 10 13  1  0  0  0  0
 12 13  2  0  0  0  0
 12 15  1  0  0  0  0
 12 18  1  0  0  0  0
 13 14  1  0  0  0  0
 14 16  2  0  0  0  0
 14 31  1  0  0  0  0
 15 17  2  0  0  0  0
 15 32  1  0  0  0  0
 16 17  1  0  0  0  0
 16 33  1  0  0  0  0
 18 19  1  0  0  0  0
 19 20  1  0  0  0  0
 19 24  1  0  0  0  0
 19 34  1  0  0  0  0
 20 21  2  0  0  0  0
 20 22  1  0  0  0  0
M  CHG  1  22  -1
M  END
>  <deltaG_kcalmol>
-9.36

>  <charge>
-1

>  <lm5_entropy_jk>
25.63780735381752

>  <number_of_rotatable_bonds>
7

$$$$
