5NY1
 OpenBabel11252210453D

 45 47  0  0  0  0  0  0  0  0999 V2000
    4.5600    9.1660   10.3870 C   0  0  0  0  0  0  0  0  0  0  0  0
    3.2900    9.3380   11.1900 C   0  0  0  0  0  0  0  0  0  0  0  0
    3.1940   10.4360   12.0700 C   0  0  0  0  0  0  0  0  0  0  0  0
    2.0310   10.6630   12.8330 C   0  0  0  0  0  0  0  0  0  0  0  0
    0.9810    9.7520   12.6870 C   0  0  0  0  0  0  0  0  0  0  0  0
   -0.3140    9.7210   13.3140 C   0  0  0  0  0  0  0  0  0  0  0  0
   -0.8980    8.5890   12.7620 C   0  0  0  0  0  0  0  0  0  0  0  0
   -0.0750    7.9170   11.8650 O   0  0  0  0  0  0  0  0  0  0  0  0
    1.0730    8.6700   11.8430 C   0  0  0  0  0  0  0  0  0  0  0  0
    2.2160    8.4200   11.0630 C   0  0  0  0  0  0  0  0  0  0  0  0
    2.2800    7.2180   10.1040 C   0  0  0  0  0  0  0  0  0  0  0  0
   -2.2850    8.1250   13.0210 C   0  0  0  0  0  0  0  0  0  0  0  0
   -3.0950    8.6870   13.7340 O   0  0  0  0  0  0  0  0  0  0  0  0
   -2.6020    6.9860   12.3160 N   0  0  0  0  0  0  0  0  0  0  0  0
   -3.9850    6.4280   12.1760 C   0  0  0  0  0  0  0  0  0  0  0  0
   -4.4280    5.5290   13.3240 C   0  0  0  0  0  0  0  0  0  0  0  0
   -5.5460    5.8640   14.1000 C   0  0  0  0  0  0  0  0  0  0  0  0
   -6.0090    5.0040   15.1060 C   0  0  0  0  0  0  0  0  0  0  0  0
   -5.3410    3.7850   15.3440 C   0  0  0  0  0  0  0  0  0  0  0  0
   -4.1800    3.4700   14.6080 C   0  0  0  0  0  0  0  0  0  0  0  0
   -3.7520    4.3330   13.5880 C   0  0  0  0  0  0  0  0  0  0  0  0
   -5.9030    2.7660   16.6730 S   0  0  0  0  0  0  0  0  0  0  0  0
   -4.8510    2.8210   17.6500 O   0  0  0  0  0  0  0  0  0  0  0  0
   -7.2260    3.2130   17.0240 O   0  0  0  0  0  0  0  0  0  0  0  0
   -5.8580    1.3710   16.0140 N   0  5  0  0  0  0  0  0  0  0  0  0
   -0.9300   10.6660   14.2990 C   0  0  0  0  0  0  0  0  0  0  0  0
    4.0300   11.1290   12.1590 H   0  0  0  0  0  0  0  0  0  0  0  0
    1.9520   11.5190   13.5050 H   0  0  0  0  0  0  0  0  0  0  0  0
    5.1960   10.0600   10.4200 H   0  0  0  0  0  0  0  0  0  0  0  0
    4.3380    8.9710    9.3310 H   0  0  0  0  0  0  0  0  0  0  0  0
    5.1530    8.3240   10.7650 H   0  0  0  0  0  0  0  0  0  0  0  0
   -1.8310    6.6250   11.7610 H   0  0  0  0  0  0  0  0  0  0  0  0
   -6.0570    6.8090   13.9320 H   0  0  0  0  0  0  0  0  0  0  0  0
   -6.8730    5.3010   15.7090 H   0  0  0  0  0  0  0  0  0  0  0  0
   -3.6080    2.5650   14.8150 H   0  0  0  0  0  0  0  0  0  0  0  0
   -2.8720    4.0790   13.0010 H   0  0  0  0  0  0  0  0  0  0  0  0
    1.5130    6.4660   10.3340 H   0  0  0  0  0  0  0  0  0  0  0  0
    3.2510    6.7090   10.1500 H   0  0  0  0  0  0  0  0  0  0  0  0
    2.1230    7.5300    9.0630 H   0  0  0  0  0  0  0  0  0  0  0  0
   -4.0640    5.8510   11.2410 H   0  0  0  0  0  0  0  0  0  0  0  0
   -4.6990    7.2580   12.0790 H   0  0  0  0  0  0  0  0  0  0  0  0
   -5.0200    1.3410   16.6560 H   0  0  0  0  0  0  0  0  0  0  0  0
   -0.1970   11.3780   14.6940 H   0  0  0  0  0  0  0  0  0  0  0  0
   -1.7340   11.2450   13.8280 H   0  0  0  0  0  0  0  0  0  0  0  0
   -1.3690   10.1280   15.1470 H   0  0  0  0  0  0  0  0  0  0  0  0
  1  2  1  0  0  0  0
  2  3  2  0  0  0  0
  2 10  1  0  0  0  0
  3  4  1  0  0  0  0
  4  5  2  0  0  0  0
  5  6  1  0  0  0  0
  5  9  1  0  0  0  0
  6  7  2  0  0  0  0
  6 26  1  0  0  0  0
  7  8  1  0  0  0  0
  7 12  1  0  0  0  0
  8  9  1  0  0  0  0
  9 10  2  0  0  0  0
 10 11  1  0  0  0  0
 12 13  2  0  0  0  0
 12 14  1  0  0  0  0
 14 15  1  0  0  0  0
 15 16  1  0  0  0  0
 16 17  2  0  0  0  0
 16 21  1  0  0  0  0
 17 18  1  0  0  0  0
 18 19  2  0  0  0  0
 19 20  1  0  0  0  0
 19 22  1  0  0  0  0
 20 21  2  0  0  0  0
 22 23  2  0  0  0  0
 22 24  2  0  0  0  0
 22 25  1  0  0  0  0
 27  3  1  0  0  0  0
 28  4  1  0  0  0  0
 29  1  1  0  0  0  0
 30  1  1  0  0  0  0
 31  1  1  0  0  0  0
 32 14  1  0  0  0  0
 33 17  1  0  0  0  0
 34 18  1  0  0  0  0
 35 20  1  0  0  0  0
 36 21  1  0  0  0  0
 37 11  1  0  0  0  0
 38 11  1  0  0  0  0
 39 11  1  0  0  0  0
 40 15  1  0  0  0  0
 41 15  1  0  0  0  0
 42 25  1  0  0  0  0
 43 26  1  0  0  0  0
 44 26  1  0  0  0  0
 45 26  1  0  0  0  0
M  CHG  1  25  -1
M  END
>  <deltaG_kcalmol>
-8.8

>  <number_of_rotatable_bonds>
5

>  <charge>
-1

>  <lm5_entropy_jk>
40.81376020622596

$$$$
