5QCR
 OpenBabel11252210453D

 78 79  0  0  1  0  0  0  0  0999 V2000
   30.3700    5.9010   16.1310 N   0  0  0  0  0  0  0  0  0  0  0  0
   31.4600    6.0840   15.1500 C   0  0  2  0  0  0  0  0  0  0  0  0
   31.9800    4.7030   14.6260 C   0  0  1  0  0  0  0  0  0  0  0  0
   32.5200    3.8940   15.6980 O   0  0  0  0  0  0  0  0  0  0  0  0
   30.8050    3.8890   14.0580 C   0  0  0  0  0  0  0  0  0  0  0  0
   31.2020    2.9000   12.9550 C   0  0  1  0  0  0  0  0  0  0  0  0
   30.1600    1.7920   12.7660 C   0  0  0  0  0  0  0  0  0  0  0  0
   31.3310    3.6510   11.6190 C   0  0  0  0  0  0  0  0  0  0  0  0
   30.4450    4.3450   11.1440 O   0  0  0  0  0  0  0  0  0  0  0  0
   32.5480    3.4400   10.9710 N   0  0  0  0  0  0  0  0  0  0  0  0
   32.9120    4.0290    9.6570 C   0  0  0  0  0  0  0  0  0  0  0  0
   34.2100    3.3820    9.1440 C   0  0  0  0  0  0  0  0  0  0  0  0
   34.4420    3.6590    7.6510 C   0  0  0  0  0  0  0  0  0  0  0  0
   34.6340    5.1480    7.3570 C   0  0  0  0  0  0  0  0  0  0  0  0
   32.5830    6.9480   15.7750 C   0  0  0  0  0  0  0  0  0  0  0  0
   32.0410    8.2730   16.2480 C   0  0  0  0  0  0  0  0  0  0  0  0
   31.8270    8.5120   17.6130 C   0  0  0  0  0  0  0  0  0  0  0  0
   31.2870    9.7270   18.0460 C   0  0  0  0  0  0  0  0  0  0  0  0
   30.9230   10.7050   17.1170 C   0  0  0  0  0  0  0  0  0  0  0  0
   31.1240   10.4680   15.7530 C   0  0  0  0  0  0  0  0  0  0  0  0
   31.7020    9.2730   15.3200 C   0  0  0  0  0  0  0  0  0  0  0  0
   29.0330    6.1400   15.8540 C   0  0  0  0  0  0  0  0  0  0  0  0
   28.6450    6.3590   14.7110 O   0  0  0  0  0  0  0  0  0  0  0  0
   28.0970    6.1210   17.0510 C   0  0  0  0  0  0  0  0  0  0  0  0
   28.5010    6.6780   18.2640 C   0  0  0  0  0  0  0  0  0  0  0  0
   27.6200    6.6660   19.3730 C   0  0  0  0  0  0  0  0  0  0  0  0
   26.3370    6.1620   19.2550 N   0  0  0  0  0  0  0  0  0  0  0  0
   25.9670    5.6690   18.0370 C   0  0  0  0  0  0  0  0  0  0  0  0
   26.8120    5.6000   16.9080 C   0  0  0  0  0  0  0  0  0  0  0  0
   24.6670    5.2460   18.1170 O   0  0  0  0  0  0  0  0  0  0  0  0
   23.9570    5.0200   16.8680 C   0  0  0  0  0  0  0  0  0  0  0  0
   27.9770    7.0410   20.6800 N   0  0  0  0  0  0  0  0  0  0  0  0
   29.0510    8.0620   20.8760 C   0  0  0  0  0  0  0  0  0  0  0  0
   30.0260    7.6520   22.0000 C   0  0  0  0  0  0  0  0  0  0  0  0
   30.7660    6.3420   21.6870 C   0  0  0  0  0  0  0  0  0  0  0  0
   31.1460    5.5010   22.9080 C   0  0  0  0  0  0  0  0  0  0  0  0
   30.6880    5.6620   17.0870 H   0  0  0  0  0  0  0  0  0  0  0  0
   31.0620    6.6430   14.2600 H   0  0  0  0  0  0  0  0  0  0  0  0
   32.7990    4.8720   13.8890 H   0  0  0  0  0  0  0  0  0  0  0  0
   30.3740    3.3050   14.9050 H   0  0  0  0  0  0  0  0  0  0  0  0
   30.0130    4.5750   13.6690 H   0  0  0  0  0  0  0  0  0  0  0  0
   32.1680    2.4160   13.2480 H   0  0  0  0  0  0  0  0  0  0  0  0
   33.3150    2.9460   11.4620 H   0  0  0  0  0  0  0  0  0  0  0  0
   32.0780    3.8550    8.9290 H   0  0  0  0  0  0  0  0  0  0  0  0
   33.0700    5.1340    9.7720 H   0  0  0  0  0  0  0  0  0  0  0  0
   34.1900    2.2780    9.2960 H   0  0  0  0  0  0  0  0  0  0  0  0
   35.0740    3.7860    9.7200 H   0  0  0  0  0  0  0  0  0  0  0  0
   35.3640    3.1080    7.3370 H   0  0  0  0  0  0  0  0  0  0  0  0
   33.5830    3.2650    7.0580 H   0  0  0  0  0  0  0  0  0  0  0  0
   33.0550    6.3980   16.6250 H   0  0  0  0  0  0  0  0  0  0  0  0
   33.3850    7.1080   15.0110 H   0  0  0  0  0  0  0  0  0  0  0  0
   32.0890    7.7570   18.3530 H   0  0  0  0  0  0  0  0  0  0  0  0
   31.1550    9.9100   19.1150 H   0  0  0  0  0  0  0  0  0  0  0  0
   30.5020   11.6540   17.4550 H   0  0  0  0  0  0  0  0  0  0  0  0
   30.8250   11.2250   15.0280 H   0  0  0  0  0  0  0  0  0  0  0  0
   31.9100    9.1220   14.2630 H   0  0  0  0  0  0  0  0  0  0  0  0
   29.5030    7.0980   18.3670 H   0  0  0  0  0  0  0  0  0  0  0  0
   26.4830    5.1470   15.9760 H   0  0  0  0  0  0  0  0  0  0  0  0
   27.1910    7.2090   21.3300 H   0  0  0  0  0  0  0  0  0  0  0  0
   29.6500    8.2150   19.9400 H   0  0  0  0  0  0  0  0  0  0  0  0
   28.5880    9.0520   21.1500 H   0  0  0  0  0  0  0  0  0  0  0  0
   29.4870    7.6170   22.9700 H   0  0  0  0  0  0  0  0  0  0  0  0
   30.7850    8.4770   22.0710 H   0  0  0  0  0  0  0  0  0  0  0  0
   30.1360    5.7350   21.0000 H   0  0  0  0  0  0  0  0  0  0  0  0
   31.6990    6.6150   21.1280 H   0  0  0  0  0  0  0  0  0  0  0  0
   33.4920    4.1460   15.8240 H   0  0  0  0  0  0  0  0  0  0  0  0
   22.9100    4.8720   17.2350 H   0  0  0  0  0  0  0  0  0  0  0  0
   24.0140    5.9190   16.2160 H   0  0  0  0  0  0  0  0  0  0  0  0
   24.3400    4.1070   16.3710 H   0  0  0  0  0  0  0  0  0  0  0  0
   30.4670    1.1170   11.9340 H   0  0  0  0  0  0  0  0  0  0  0  0
   29.1560    2.2150   12.5400 H   0  0  0  0  0  0  0  0  0  0  0  0
   30.0880    1.1800   13.6960 H   0  0  0  0  0  0  0  0  0  0  0  0
   32.2540    5.3670   22.9470 H   0  0  0  0  0  0  0  0  0  0  0  0
   30.8250    5.9800   23.8610 H   0  0  0  0  0  0  0  0  0  0  0  0
   30.6970    4.4880   22.8530 H   0  0  0  0  0  0  0  0  0  0  0  0
   35.0280    5.2840    6.3310 H   0  0  0  0  0  0  0  0  0  0  0  0
   35.3670    5.5810    8.0740 H   0  0  0  0  0  0  0  0  0  0  0  0
   33.6680    5.6920    7.4500 H   0  0  0  0  0  0  0  0  0  0  0  0
  1  2  1  0  0  0  0
  1 22  1  0  0  0  0
  2  3  1  0  0  0  0
  2 15  1  0  0  0  0
  2 38  1  6  0  0  0
  3  4  1  0  0  0  0
  3  5  1  0  0  0  0
  3 39  1  6  0  0  0
  5  6  1  0  0  0  0
  6  7  1  0  0  0  0
  6  8  1  0  0  0  0
  6 42  1  1  0  0  0
  8  9  2  0  0  0  0
  8 10  1  0  0  0  0
 10 11  1  0  0  0  0
 11 12  1  0  0  0  0
 12 13  1  0  0  0  0
 13 14  1  0  0  0  0
 15 16  1  0  0  0  0
 16 17  2  0  0  0  0
 16 21  1  0  0  0  0
 17 18  1  0  0  0  0
 18 19  2  0  0  0  0
 19 20  1  0  0  0  0
 20 21  2  0  0  0  0
 22 23  2  0  0  0  0
 22 24  1  0  0  0  0
 24 25  2  0  0  0  0
 24 29  1  0  0  0  0
 25 26  1  0  0  0  0
 26 27  2  0  0  0  0
 26 32  1  0  0  0  0
 27 28  1  0  0  0  0
 28 29  2  0  0  0  0
 28 30  1  0  0  0  0
 30 31  1  0  0  0  0
 32 33  1  0  0  0  0
 33 34  1  0  0  0  0
 34 35  1  0  0  0  0
 35 36  1  0  0  0  0
 37  1  1  0  0  0  0
 40  5  1  0  0  0  0
 41  5  1  0  0  0  0
 43 10  1  0  0  0  0
 44 11  1  0  0  0  0
 45 11  1  0  0  0  0
 46 12  1  0  0  0  0
 47 12  1  0  0  0  0
 48 13  1  0  0  0  0
 49 13  1  0  0  0  0
 50 15  1  0  0  0  0
 51 15  1  0  0  0  0
 52 17  1  0  0  0  0
 53 18  1  0  0  0  0
 54 19  1  0  0  0  0
 55 20  1  0  0  0  0
 56 21  1  0  0  0  0
 57 25  1  0  0  0  0
 58 29  1  0  0  0  0
 59 32  1  0  0  0  0
 60 33  1  0  0  0  0
 61 33  1  0  0  0  0
 62 34  1  0  0  0  0
 63 34  1  0  0  0  0
 64 35  1  0  0  0  0
 65 35  1  0  0  0  0
 66  4  1  0  0  0  0
 67 31  1  0  0  0  0
 68 31  1  0  0  0  0
 69 31  1  0  0  0  0
 70  7  1  0  0  0  0
 71  7  1  0  0  0  0
 72  7  1  0  0  0  0
 73 36  1  0  0  0  0
 74 36  1  0  0  0  0
 75 36  1  0  0  0  0
 76 14  1  0  0  0  0
 77 14  1  0  0  0  0
 78 14  1  0  0  0  0
M  END
>  <IC50_NM>
770

>  <number_of_rotatable_bonds>
18

>  <lm5_entropy_jk>
47.176369789984406

>  <charge>
0

>  <old_name>
BACE_20

>  <xray_resolution>
2.2

$$$$
