3QTQ
 OpenBabel11252210453D

 30 31  0  0  1  0  0  0  0  0999 V2000
   65.7840  154.4920  -50.6480 N   0  0  0  0  0  0  0  0  0  0  0  0
   67.1360  153.5000  -52.2170 N   0  0  0  0  0  0  0  0  0  0  0  0
   70.8990  150.1970  -47.8710 N   0  0  0  0  0  0  0  0  0  0  0  0
   64.5480  155.1850  -48.8200 N   0  0  0  0  0  0  0  0  0  0  0  0
   66.8130  153.6440  -50.9440 C   0  0  0  0  0  0  0  0  0  0  0  0
   67.4000  152.9770  -49.9190 C   0  0  0  0  0  0  0  0  0  0  0  0
   68.5420  152.0790  -50.1060 C   0  0  0  0  0  0  0  0  0  0  0  0
   69.0020  151.2300  -48.9660 C   0  0  0  0  0  0  0  0  0  0  0  0
   70.3820  151.0180  -48.8110 C   0  0  0  0  0  0  0  0  0  0  0  0
   70.0470  149.5440  -47.0510 C   0  0  0  0  0  0  0  0  0  0  0  0
   68.6540  149.6900  -47.1430 C   0  0  0  0  0  0  0  0  0  0  0  0
   68.1140  150.5400  -48.1200 C   0  0  0  0  0  0  0  0  0  0  0  0
   65.5610  154.4400  -49.3520 C   0  0  0  0  0  0  0  0  0  0  0  0
   64.0990  155.1360  -47.4130 C   0  0  0  0  0  0  0  0  0  0  0  0
   63.0880  154.0350  -47.2260 C   0  0  0  0  0  0  0  0  0  0  0  0
   62.7870  153.5460  -46.0210 C   0  0  0  0  0  0  0  0  0  0  0  0
   69.1260  152.0120  -51.1730 O   0  0  0  0  0  0  0  0  0  0  0  0
   66.5750  153.3410  -48.4320 S   0  0  0  0  0  0  0  0  0  0  0  0
   66.8700  154.2340  -52.8600 H   0  0  0  0  0  0  0  0  0  0  0  0
   68.0130  153.0130  -52.3500 H   0  0  0  0  0  0  0  0  0  0  0  0
   71.0920  151.5140  -49.4800 H   0  0  0  0  0  0  0  0  0  0  0  0
   70.4880  148.8740  -46.3070 H   0  0  0  0  0  0  0  0  0  0  0  0
   68.0000  149.1340  -46.4720 H   0  0  0  0  0  0  0  0  0  0  0  0
   67.0340  150.6330  -48.2320 H   0  0  0  0  0  0  0  0  0  0  0  0
   63.8880  155.5340  -49.5140 H   0  0  0  0  0  0  0  0  0  0  0  0
   63.6430  156.0960  -47.1220 H   0  0  0  0  0  0  0  0  0  0  0  0
   64.9490  154.9710  -46.7430 H   0  0  0  0  0  0  0  0  0  0  0  0
   62.0590  152.7500  -45.8900 H   0  0  0  0  0  0  0  0  0  0  0  0
   63.2630  153.9150  -45.1110 H   0  0  0  0  0  0  0  0  0  0  0  0
   62.6000  153.6610  -48.1310 H   0  0  0  0  0  0  0  0  0  0  0  0
  1  5  1  0  0  0  0
  1 13  2  0  0  0  0
  2  5  1  0  0  0  0
  2 19  1  0  0  0  0
  2 20  1  0  0  0  0
  3  9  2  0  0  0  0
  3 10  1  0  0  0  0
  4 13  1  0  0  0  0
  4 14  1  0  0  0  0
  4 25  1  0  0  0  0
  5  6  2  0  0  0  0
  6 18  1  0  0  0  0
  7  6  1  0  0  0  0
  7  8  1  0  0  0  0
  7 17  2  0  0  0  0
  8  9  1  0  0  0  0
  8 12  2  0  0  0  0
  9 21  1  0  0  0  0
 10 11  2  0  0  0  0
 10 22  1  0  0  0  0
 11 12  1  0  0  0  0
 11 23  1  0  0  0  0
 12 24  1  0  0  0  0
 13 18  1  0  0  0  0
 14 15  1  0  0  0  0
 14 26  1  0  0  0  0
 14 27  1  0  0  0  0
 15 16  2  0  0  0  0
 15 30  1  0  0  0  0
 16 28  1  0  0  0  0
 16 29  1  0  0  0  0
M  END
>  <lm5_entropy_jk>
31.50116356131297

>  <number_of_rotatable_bonds>
5

>  <IC50_NM>
3100

>  <charge>
0

$$$$
