3RAH
 OpenBabel11252210453D

 46 49  0  0  1  0  0  0  0  0999 V2000
   65.6710  154.5190  -50.0980 N   0  0  0  0  0  0  0  0  0  0  0  0
   64.1900  155.1830  -48.3240 N   0  0  0  0  0  0  0  0  0  0  0  0
   67.3140  153.4900  -51.5070 N   0  0  0  0  0  0  0  0  0  0  0  0
   68.6210  149.2370  -45.6080 C   0  0  0  0  0  0  0  0  0  0  0  0
   69.0130  148.8610  -46.9310 C   0  0  0  0  0  0  0  0  0  0  0  0
   68.8410  149.7120  -47.9920 C   0  0  0  0  0  0  0  0  0  0  0  0
   67.9570  151.4180  -46.5200 C   0  0  0  0  0  0  0  0  0  0  0  0
   68.0670  150.5260  -45.4050 C   0  0  0  0  0  0  0  0  0  0  0  0
   68.7600  148.3520  -44.4930 C   0  0  0  0  0  0  0  0  0  0  0  0
   68.3490  148.7400  -43.2430 C   0  0  0  0  0  0  0  0  0  0  0  0
   67.7720  150.0270  -43.0420 C   0  0  0  0  0  0  0  0  0  0  0  0
   67.6290  150.8970  -44.0940 C   0  0  0  0  0  0  0  0  0  0  0  0
   68.3070  151.0250  -47.7890 C   0  0  0  0  0  0  0  0  0  0  0  0
   68.2130  151.9260  -48.9970 C   0  0  0  0  0  0  0  0  0  0  0  0
   67.0910  152.8030  -49.1500 C   0  0  0  0  0  0  0  0  0  0  0  0
   66.7450  153.5980  -50.2710 C   0  0  0  0  0  0  0  0  0  0  0  0
   65.1420  154.3600  -48.8600 C   0  0  0  0  0  0  0  0  0  0  0  0
   63.6330  154.9840  -46.9490 C   0  0  0  0  0  0  0  0  0  0  0  0
   62.6250  153.8160  -46.8790 C   0  0  0  0  0  0  0  0  0  0  0  0
   62.0830  153.7000  -45.4470 C   0  0  0  0  0  0  0  0  0  0  0  0
   61.4210  155.0040  -44.9780 C   0  0  0  0  0  0  0  0  0  0  0  0
   62.3890  156.1900  -45.1060 C   0  0  0  0  0  0  0  0  0  0  0  0
   62.9430  156.3040  -46.5340 C   0  0  0  0  0  0  0  0  0  0  0  0
   69.1040  151.8640  -49.8420 O   0  0  0  0  0  0  0  0  0  0  0  0
   65.8960  152.9810  -47.9070 S   0  0  0  0  0  0  0  0  0  0  0  0
   69.4500  147.8710  -47.0610 H   0  0  0  0  0  0  0  0  0  0  0  0
   69.1220  149.3930  -49.0000 H   0  0  0  0  0  0  0  0  0  0  0  0
   63.5280  155.6530  -48.9810 H   0  0  0  0  0  0  0  0  0  0  0  0
   67.6130  152.4240  -46.2920 H   0  0  0  0  0  0  0  0  0  0  0  0
   67.0550  154.1390  -52.2790 H   0  0  0  0  0  0  0  0  0  0  0  0
   68.1590  152.9240  -51.6250 H   0  0  0  0  0  0  0  0  0  0  0  0
   69.1880  147.3590  -44.6550 H   0  0  0  0  0  0  0  0  0  0  0  0
   68.4510  148.0720  -42.3820 H   0  0  0  0  0  0  0  0  0  0  0  0
   67.4390  150.2990  -42.0360 H   0  0  0  0  0  0  0  0  0  0  0  0
   67.1550  151.8690  -43.9380 H   0  0  0  0  0  0  0  0  0  0  0  0
   64.4870  154.7830  -46.2560 H   0  0  0  0  0  0  0  0  0  0  0  0
   63.1170  152.8580  -47.1540 H   0  0  0  0  0  0  0  0  0  0  0  0
   61.7970  154.0140  -47.5940 H   0  0  0  0  0  0  0  0  0  0  0  0
   62.9290  153.4510  -44.7580 H   0  0  0  0  0  0  0  0  0  0  0  0
   61.3490  152.8710  -45.3890 H   0  0  0  0  0  0  0  0  0  0  0  0
   61.1110  154.8960  -43.9130 H   0  0  0  0  0  0  0  0  0  0  0  0
   60.5190  155.2160  -45.5960 H   0  0  0  0  0  0  0  0  0  0  0  0
   61.8560  157.1360  -44.8500 H   0  0  0  0  0  0  0  0  0  0  0  0
   63.2350  156.0600  -44.3890 H   0  0  0  0  0  0  0  0  0  0  0  0
   62.1090  156.5240  -47.2430 H   0  0  0  0  0  0  0  0  0  0  0  0
   63.6700  157.1410  -46.5650 H   0  0  0  0  0  0  0  0  0  0  0  0
  1 17  2  0  0  0  0
  2 18  1  0  0  0  0
  2 28  1  0  0  0  0
  3 16  1  0  0  0  0
  3 30  1  0  0  0  0
  3 31  1  0  0  0  0
  4  9  1  0  0  0  0
  5  4  2  0  0  0  0
  5 26  1  0  0  0  0
  6  5  1  0  0  0  0
  6 27  1  0  0  0  0
  7  8  2  0  0  0  0
  7 29  1  0  0  0  0
  8  4  1  0  0  0  0
  8 12  1  0  0  0  0
  9 10  2  0  0  0  0
  9 32  1  0  0  0  0
 10 33  1  0  0  0  0
 11 10  1  0  0  0  0
 11 34  1  0  0  0  0
 12 11  2  0  0  0  0
 12 35  1  0  0  0  0
 13  6  2  0  0  0  0
 13  7  1  0  0  0  0
 14 13  1  0  0  0  0
 14 24  2  0  0  0  0
 15 14  1  0  0  0  0
 15 25  1  0  0  0  0
 16  1  1  0  0  0  0
 16 15  2  0  0  0  0
 17  2  1  0  0  0  0
 17 25  1  0  0  0  0
 18 23  1  0  0  0  0
 18 36  1  0  0  0  0
 19 18  1  0  0  0  0
 19 20  1  0  0  0  0
 19 37  1  0  0  0  0
 19 38  1  0  0  0  0
 20 21  1  0  0  0  0
 20 39  1  0  0  0  0
 20 40  1  0  0  0  0
 21 41  1  0  0  0  0
 21 42  1  0  0  0  0
 22 21  1  0  0  0  0
 22 43  1  0  0  0  0
 22 44  1  0  0  0  0
 23 22  1  0  0  0  0
 23 45  1  0  0  0  0
 23 46  1  0  0  0  0
M  END
>  <lm5_entropy_jk>
20.76925268888156

>  <number_of_rotatable_bonds>
4

>  <IC50_NM>
12000

>  <charge>
0

$$$$
