JAK1_7.pdb
 OpenBabel11252210453D

 38 41  0  0  1  0  0  0  0  0999 V2000
  -17.1940   27.3080   -1.0790 C   0  0  0  0  0  0  0  0  0  0  0  0
  -17.9270   26.1480   -1.2930 C   0  0  0  0  0  0  0  0  0  0  0  0
  -17.2470   25.0490   -0.7330 N   0  0  0  0  0  0  0  0  0  0  0  0
  -16.0780   25.5150   -0.1330 C   0  0  0  0  0  0  0  0  0  0  0  0
  -16.0210   26.9400   -0.3530 C   0  0  0  0  0  0  0  0  0  0  0  0
  -14.8460   27.5520    0.1170 C   0  0  0  0  0  0  0  0  0  0  0  0
  -13.8300   26.7530    0.7520 C   0  0  0  0  0  0  0  0  0  0  0  0
  -14.0220   25.3470    0.9410 C   0  0  0  0  0  0  0  0  0  0  0  0
  -15.1230   24.7350    0.5120 N   0  0  0  0  0  0  0  0  0  0  0  0
  -12.7530   27.6170    1.0430 N   0  0  0  0  0  0  0  0  0  0  0  0
  -13.0360   28.8020    0.6350 N   0  0  0  0  0  0  0  0  0  0  0  0
  -14.3150   28.8470    0.0940 N   0  0  0  0  0  0  0  0  0  0  0  0
  -14.8850   29.9770   -0.6830 C   0  0  2  0  0  0  0  0  0  0  0  0
  -14.6560   29.7230   -2.1890 C   0  0  0  0  0  0  0  0  0  0  0  0
  -15.2320   30.8950   -2.9860 C   0  0  0  0  0  0  0  0  0  0  0  0
  -14.6600   32.2460   -2.5240 C   0  0  0  0  0  0  0  0  0  0  0  0
  -14.8500   32.4430   -1.0610 N   0  0  0  0  0  0  0  0  0  0  0  0
  -14.2760   31.3360   -0.2390 C   0  0  0  0  0  0  0  0  0  0  0  0
  -15.9230   33.1710   -0.5130 C   0  0  0  0  0  0  0  0  0  0  0  0
  -16.1070   33.1430    0.6920 O   0  0  0  0  0  0  0  0  0  0  0  0
  -16.7570   34.0770   -1.4140 C   0  0  0  0  0  0  0  0  0  0  0  0
  -17.7440   34.7990   -0.6350 C   0  0  0  0  0  0  0  0  0  0  0  0
  -18.5250   35.3520    0.0130 N   0  0  0  0  0  0  0  0  0  0  0  0
  -17.4680   28.2860   -1.4340 H   0  0  0  0  0  0  0  0  0  0  0  0
  -18.8590   26.0280   -1.8240 H   0  0  0  0  0  0  0  0  0  0  0  0
  -13.2540   24.7400    1.4460 H   0  0  0  0  0  0  0  0  0  0  0  0
  -15.9950   29.9870   -0.4810 H   0  0  0  0  0  0  0  0  0  0  0  0
  -15.1940   28.7910   -2.5050 H   0  0  0  0  0  0  0  0  0  0  0  0
  -13.5710   29.6090   -2.4120 H   0  0  0  0  0  0  0  0  0  0  0  0
  -16.3470   30.8960   -2.8650 H   0  0  0  0  0  0  0  0  0  0  0  0
  -14.9930   30.7530   -4.0660 H   0  0  0  0  0  0  0  0  0  0  0  0
  -13.5540   32.2770   -2.7270 H   0  0  0  0  0  0  0  0  0  0  0  0
  -15.1320   33.0740   -3.1110 H   0  0  0  0  0  0  0  0  0  0  0  0
  -14.5100   31.5160    0.8450 H   0  0  0  0  0  0  0  0  0  0  0  0
  -13.1680   31.3460   -0.4020 H   0  0  0  0  0  0  0  0  0  0  0  0
  -17.2870   33.4590   -2.2010 H   0  0  0  0  0  0  0  0  0  0  0  0
  -16.1030   34.8180   -1.9670 H   0  0  0  0  0  0  0  0  0  0  0  0
  -17.6210   24.0970   -0.6870 H   0  0  0  0  0  0  0  0  0  0  0  0
  1  2  2  0  0  0  0
  1  5  1  0  0  0  0
  2  3  1  0  0  0  0
  4  5  2  0  0  0  0
  4  9  1  0  0  0  0
  4  3  1  0  0  0  0
  5  6  1  0  0  0  0
  6  7  2  0  0  0  0
  6 12  1  0  0  0  0
  7  8  1  0  0  0  0
  7 10  1  0  0  0  0
  8  9  2  0  0  0  0
 10 11  2  0  0  0  0
 11 12  1  0  0  0  0
 13 14  1  0  0  0  0
 13 18  1  0  0  0  0
 13 12  1  0  0  0  0
 13 27  1  1  0  0  0
 14 15  1  0  0  0  0
 15 16  1  0  0  0  0
 16 17  1  0  0  0  0
 18 17  1  0  0  0  0
 19 21  1  0  0  0  0
 19 17  1  0  0  0  0
 19 20  2  0  0  0  0
 21 22  1  0  0  0  0
 22 23  3  0  0  0  0
 24  1  1  0  0  0  0
 25  2  1  0  0  0  0
 26  8  1  0  0  0  0
 28 14  1  0  0  0  0
 29 14  1  0  0  0  0
 30 15  1  0  0  0  0
 31 15  1  0  0  0  0
 32 16  1  0  0  0  0
 33 16  1  0  0  0  0
 34 18  1  0  0  0  0
 35 18  1  0  0  0  0
 36 21  1  0  0  0  0
 37 21  1  0  0  0  0
 38  3  1  0  0  0  0
M  END
>  <charge>
0

>  <pKi>
8.82

>  <number_of_rotatable_bonds>
3

>  <lm5_entropy_jk>
19.1780333427044

$$$$
