1K1N
 OpenBabel11252210453D

 81 83  0  0  1  0  0  0  0  0999 V2000
    2.5390   20.7900   14.9440 C   0  0  0  0  0  0  0  0  0  0  0  0
    1.3350   22.8430   15.8710 C   0  0  0  0  0  0  0  0  0  0  0  0
    4.8930   24.2520   17.5340 O   0  0  0  0  0  0  0  0  0  0  0  0
    1.3680   23.9900   16.7070 C   0  0  0  0  0  0  0  0  0  0  0  0
    2.5920   24.4520   17.2330 C   0  0  0  0  0  0  0  0  0  0  0  0
    3.7640   23.7020   16.9800 C   0  0  0  0  0  0  0  0  0  0  0  0
    3.7300   22.5260   16.2290 C   0  0  0  0  0  0  0  0  0  0  0  0
    2.5180   22.0860   15.6840 C   0  0  0  0  0  0  0  0  0  0  0  0
    0.1410   24.7540   17.0770 C   0  0  0  0  0  0  0  0  0  0  0  0
    2.6950   25.6990   18.0540 C   0  0  0  0  0  0  0  0  0  0  0  0
    6.1240   23.4840   17.5110 C   0  0  0  0  0  0  0  0  0  0  0  0
   -0.0610   22.3870   14.9810 S   0  0  0  0  0  0  0  0  0  0  0  0
   -1.2390   23.2070   15.3050 O   0  0  0  0  0  0  0  0  0  0  0  0
    0.2280   22.3670   13.5370 O   0  0  0  0  0  0  0  0  0  0  0  0
   -0.4280   20.7940   15.4730 N   0  0  0  0  0  0  0  0  0  0  0  0
   -0.9890   20.4700   16.7920 C   0  0  1  0  0  0  0  0  0  0  0  0
   -2.5170   20.2730   16.7640 C   0  0  0  0  0  0  0  0  0  0  0  0
   -3.2200   20.6920   18.0710 C   0  0  0  0  0  0  0  0  0  0  0  0
   -4.2760   21.3320   18.0270 O   0  0  0  0  0  0  0  0  0  0  0  0
   -2.6960   20.3610   19.1940 O   0  5  0  0  0  0  0  0  0  0  0  0
   -0.2940   19.1770   17.3270 C   0  0  0  0  0  0  0  0  0  0  0  0
    0.4940   18.4700   16.7010 O   0  0  0  0  0  0  0  0  0  0  0  0
   -0.6410   18.9250   18.6400 N   0  0  0  0  0  0  0  0  0  0  0  0
    0.0120   17.8740   19.4220 C   0  0  1  0  0  0  0  0  0  0  0  0
    0.4340   18.5960   20.7350 C   0  0  0  0  0  0  0  0  0  0  0  0
   -0.3250   18.6810   21.6940 O   0  0  0  0  0  0  0  0  0  0  0  0
   -0.9370   16.6870   19.7240 C   0  0  0  0  0  0  0  0  0  0  0  0
   -1.2240   15.9320   18.4640 C   0  0  0  0  0  0  0  0  0  0  0  0
   -2.2580   16.3340   17.5930 C   0  0  0  0  0  0  0  0  0  0  0  0
   -2.4980   15.6350   16.4210 C   0  0  0  0  0  0  0  0  0  0  0  0
   -1.7310   14.4910   16.0960 C   0  0  0  0  0  0  0  0  0  0  0  0
   -0.6900   14.0910   16.9670 C   0  0  0  0  0  0  0  0  0  0  0  0
   -0.4500   14.7980   18.1330 C   0  0  0  0  0  0  0  0  0  0  0  0
   -2.0360   13.7000   14.9110 C   0  0  0  0  0  0  0  0  0  0  0  0
   -2.5420   14.2340   13.7620 N   0  3  0  0  0  0  0  0  0  0  0  0
   -1.7560   12.3560   14.9080 N   0  0  0  0  0  0  0  0  0  0  0  0
    1.7340   19.1340   20.7960 N   0  0  0  0  0  0  0  0  0  0  0  0
    2.0430   20.2050   21.7960 C   0  0  0  0  0  0  0  0  0  0  0  0
    1.8990   21.6240   21.2130 C   0  0  0  0  0  0  0  0  0  0  0  0
    2.7120   21.7840   19.9180 C   0  0  0  0  0  0  0  0  0  0  0  0
    2.3980   20.6590   18.9240 C   0  0  0  0  0  0  0  0  0  0  0  0
    2.5990   19.2850   19.5860 C   0  0  0  0  0  0  0  0  0  0  0  0
    2.4220   18.4690   18.8450 H   0  0  0  0  0  0  0  0  0  0  0  0
    2.1390   20.8820   13.9040 H   0  0  0  0  0  0  0  0  0  0  0  0
    4.6370   21.9470   16.0550 H   0  0  0  0  0  0  0  0  0  0  0  0
    0.0650   25.6770   16.4420 H   0  0  0  0  0  0  0  0  0  0  0  0
    3.7640   25.9830   18.2260 H   0  0  0  0  0  0  0  0  0  0  0  0
    6.4970   23.3950   16.4690 H   0  0  0  0  0  0  0  0  0  0  0  0
   -0.4770   20.0060   14.7920 H   0  0  0  0  0  0  0  0  0  0  0  0
   -0.7180   21.3070   17.4980 H   0  0  0  0  0  0  0  0  0  0  0  0
   -2.7590   19.2100   16.5230 H   0  0  0  0  0  0  0  0  0  0  0  0
   -1.5120   19.5070   19.1010 H   0  0  0  0  0  0  0  0  0  0  0  0
    0.8940   17.4350   18.8680 H   0  0  0  0  0  0  0  0  0  0  0  0
   -1.8900   17.0530   20.1760 H   0  0  0  0  0  0  0  0  0  0  0  0
   -2.8710   17.2130   17.8240 H   0  0  0  0  0  0  0  0  0  0  0  0
   -3.3010   15.9470   15.7520 H   0  0  0  0  0  0  0  0  0  0  0  0
   -0.0650   13.2300   16.7150 H   0  0  0  0  0  0  0  0  0  0  0  0
    0.3550   14.4680   18.7960 H   0  0  0  0  0  0  0  0  0  0  0  0
   -2.7960   15.2370   13.6870 H   0  0  0  0  0  0  0  0  0  0  0  0
   -2.1120   11.7450   14.1380 H   0  0  0  0  0  0  0  0  0  0  0  0
    3.1140   20.0530   22.1070 H   0  0  0  0  0  0  0  0  0  0  0  0
    2.2790   22.3600   21.9670 H   0  0  0  0  0  0  0  0  0  0  0  0
    3.8040   21.7720   20.1560 H   0  0  0  0  0  0  0  0  0  0  0  0
    3.0630   20.7440   18.0340 H   0  0  0  0  0  0  0  0  0  0  0  0
    3.6660   19.1880   19.9320 H   0  0  0  0  0  0  0  0  0  0  0  0
    1.9420   20.0160   15.5040 H   0  0  0  0  0  0  0  0  0  0  0  0
    0.1940   25.0940   18.1450 H   0  0  0  0  0  0  0  0  0  0  0  0
    2.2240   25.5480   19.0570 H   0  0  0  0  0  0  0  0  0  0  0  0
    5.9640   22.4970   17.9930 H   0  0  0  0  0  0  0  0  0  0  0  0
   -2.9300   20.8790   15.9150 H   0  0  0  0  0  0  0  0  0  0  0  0
   -0.4210   16.0050   20.4490 H   0  0  0  0  0  0  0  0  0  0  0  0
   -2.9220   13.5880   13.0280 H   0  0  0  0  0  0  0  0  0  0  0  0
   -1.5580   11.8650   15.7980 H   0  0  0  0  0  0  0  0  0  0  0  0
    1.3810   20.0990   22.6850 H   0  0  0  0  0  0  0  0  0  0  0  0
    0.8300   21.8590   21.0030 H   0  0  0  0  0  0  0  0  0  0  0  0
    2.4790   22.7710   19.4490 H   0  0  0  0  0  0  0  0  0  0  0  0
    1.3500   20.7640   18.5630 H   0  0  0  0  0  0  0  0  0  0  0  0
    6.7970   24.1240   18.1290 H   0  0  0  0  0  0  0  0  0  0  0  0
    3.5820   20.3890   14.8460 H   0  0  0  0  0  0  0  0  0  0  0  0
   -0.8140   24.1760   16.9660 H   0  0  0  0  0  0  0  0  0  0  0  0
    2.1970   26.5580   17.5430 H   0  0  0  0  0  0  0  0  0  0  0  0
  1  8  1  0  0  0  0
  1 44  1  0  0  0  0
  1 66  1  0  0  0  0
  1 79  1  0  0  0  0
  2  4  2  0  0  0  0
  2  8  1  0  0  0  0
  2 12  1  0  0  0  0
  3  6  1  0  0  0  0
  3 11  1  0  0  0  0
  4  5  1  0  0  0  0
  4  9  1  0  0  0  0
  5  6  2  0  0  0  0
  5 10  1  0  0  0  0
  6  7  1  0  0  0  0
  7  8  2  0  0  0  0
  7 45  1  0  0  0  0
  9 46  1  0  0  0  0
  9 67  1  0  0  0  0
  9 80  1  0  0  0  0
 10 47  1  0  0  0  0
 10 68  1  0  0  0  0
 10 81  1  0  0  0  0
 11 48  1  0  0  0  0
 11 69  1  0  0  0  0
 11 78  1  0  0  0  0
 12 13  2  0  0  0  0
 12 14  2  0  0  0  0
 12 15  1  0  0  0  0
 15 16  1  0  0  0  0
 15 49  1  0  0  0  0
 16 17  1  0  0  0  0
 16 21  1  0  0  0  0
 16 50  1  1  0  0  0
 17 18  1  0  0  0  0
 17 51  1  0  0  0  0
 17 70  1  0  0  0  0
 18 19  2  0  0  0  0
 18 20  1  0  0  0  0
 21 22  2  0  0  0  0
 21 23  1  0  0  0  0
 23 24  1  0  0  0  0
 23 52  1  0  0  0  0
 24 25  1  0  0  0  0
 24 27  1  0  0  0  0
 24 53  1  6  0  0  0
 25 26  2  0  0  0  0
 25 37  1  0  0  0  0
 27 28  1  0  0  0  0
 27 54  1  0  0  0  0
 27 71  1  0  0  0  0
 28 29  2  0  0  0  0
 28 33  1  0  0  0  0
 29 30  1  0  0  0  0
 29 55  1  0  0  0  0
 30 31  2  0  0  0  0
 30 56  1  0  0  0  0
 31 32  1  0  0  0  0
 31 34  1  0  0  0  0
 32 33  2  0  0  0  0
 32 57  1  0  0  0  0
 33 58  1  0  0  0  0
 34 35  2  0  0  0  0
 34 36  1  0  0  0  0
 35 59  1  0  0  0  0
 35 72  1  0  0  0  0
 36 60  1  0  0  0  0
 36 73  1  0  0  0  0
 37 38  1  0  0  0  0
 37 42  1  0  0  0  0
 38 39  1  0  0  0  0
 38 61  1  0  0  0  0
 38 74  1  0  0  0  0
 39 40  1  0  0  0  0
 39 62  1  0  0  0  0
 39 75  1  0  0  0  0
 40 41  1  0  0  0  0
 40 63  1  0  0  0  0
 40 76  1  0  0  0  0
 41 42  1  0  0  0  0
 41 64  1  0  0  0  0
 41 77  1  0  0  0  0
 42 43  1  0  0  0  0
 42 65  1  0  0  0  0
M  CHG  2  20  -1  35   1
M  END
>  <deltaG_kcalmol>
-9.31

>  <charge>
0

>  <lm5_entropy_jk>
45.06683044899119

>  <number_of_rotatable_bonds>
14

$$$$
