3F19
 OpenBabel11252210453D

 25 25  0  0  0  0  0  0  0  0999 V2000
    5.5600   25.3130    4.5310 C   0  0  0  0  0  0  0  0  0  0  0  0
    7.6880   25.8970    2.2370 N   0  0  0  0  0  0  0  0  0  0  0  0
    9.0290   22.4660   -1.1430 O   0  0  0  0  0  0  0  0  0  0  0  0
    8.0010   26.2880    3.8020 S   0  0  0  0  0  0  0  0  0  0  0  0
    4.7070   24.2870    4.9470 C   0  0  0  0  0  0  0  0  0  0  0  0
    9.2840   23.7140   -0.4190 N   0  0  0  0  0  0  0  0  0  0  0  0
    7.0860   24.1490    0.0280 O   0  0  0  0  0  0  0  0  0  0  0  0
    6.9280   25.0280    4.3760 C   0  0  0  0  0  0  0  0  0  0  0  0
    9.3780   25.8620    4.0810 O   0  0  0  0  0  0  0  0  0  0  0  0
    5.2050   23.0140    5.2030 C   0  0  0  0  0  0  0  0  0  0  0  0
    7.4480   27.6170    4.0450 O   0  0  0  0  0  0  0  0  0  0  0  0
    7.4330   23.7250    4.5680 C   0  0  0  0  0  0  0  0  0  0  0  0
    8.7580   25.4820    1.2010 C   0  0  0  0  0  0  0  0  0  0  0  0
    6.5500   22.7290    4.9890 C   0  0  0  0  0  0  0  0  0  0  0  0
    8.2760   24.4040    0.2150 C   0  0  0  0  0  0  0  0  0  0  0  0
    4.3790   22.0520    5.6540 F   0  0  0  0  0  0  0  0  0  0  0  0
    5.1440   26.3020    4.3140 H   0  0  0  0  0  0  0  0  0  0  0  0
    7.2550   25.0890    2.6920 H   0  0  0  0  0  0  0  0  0  0  0  0
    9.0620   21.7480   -0.4480 H   0  0  0  0  0  0  0  0  0  0  0  0
    3.6420   24.4640    5.0720 H   0  0  0  0  0  0  0  0  0  0  0  0
   10.2530   24.0130   -0.3330 H   0  0  0  0  0  0  0  0  0  0  0  0
    8.4830   23.4680    4.3800 H   0  0  0  0  0  0  0  0  0  0  0  0
    9.1130   26.3370    0.5960 H   0  0  0  0  0  0  0  0  0  0  0  0
    9.6590   25.0690    1.6920 H   0  0  0  0  0  0  0  0  0  0  0  0
    6.8980   21.7120    5.1260 H   0  0  0  0  0  0  0  0  0  0  0  0
  1  8  2  0  0  0  0
  1  5  1  0  0  0  0
  1 17  1  0  0  0  0
  2 13  1  0  0  0  0
  2  4  1  0  0  0  0
  2 18  1  0  0  0  0
  3  6  1  0  0  0  0
  3 19  1  0  0  0  0
  4  9  2  0  0  0  0
  4  8  1  0  0  0  0
  4 11  2  0  0  0  0
  5 10  2  0  0  0  0
  5 20  1  0  0  0  0
  6 15  1  0  0  0  0
  6 21  1  0  0  0  0
  7 15  2  0  0  0  0
  8 12  1  0  0  0  0
 10 14  1  0  0  0  0
 10 16  1  0  0  0  0
 12 14  2  0  0  0  0
 12 22  1  0  0  0  0
 13 15  1  0  0  0  0
 13 23  1  0  0  0  0
 13 24  1  0  0  0  0
 14 25  1  0  0  0  0
M  END
>  <lm5_entropy_jk>
20.21647283461167

>  <number_of_rotatable_bonds>
5

>  <deltaG_kcalmol>
-9.81

>  <charge>
0

$$$$
