4QXI
 OpenBabel11252210453D

 37 38  0  0  0  0  0  0  0  0999 V2000
   14.3800  -11.8170   19.1390 Cl  0  0  0  0  0  0  0  0  0  0  0  0
   16.8740   -7.6380   17.5300 O   0  0  0  0  0  0  0  0  0  0  0  0
   15.0260   -3.9670    9.8180 N   0  0  0  0  0  0  0  0  0  0  0  0
   16.5640   -6.8060   18.6860 C   0  0  0  0  0  0  0  0  0  0  0  0
   15.3770   -5.8870   18.5000 C   0  0  0  0  0  0  0  0  0  0  0  0
   14.8970   -5.7440   17.3920 O   0  5  0  0  0  0  0  0  0  0  0  0
   18.2560   -9.3250   14.2660 O   0  0  0  0  0  0  0  0  0  0  0  0
   15.2230  -10.9060   17.9180 C   0  0  0  0  0  0  0  0  0  0  0  0
   15.5270   -9.5620   18.1330 C   0  0  0  0  0  0  0  0  0  0  0  0
   16.4410  -10.8490   15.8290 C   0  0  0  0  0  0  0  0  0  0  0  0
   17.0680   -4.3650   10.9390 C   0  0  0  0  0  0  0  0  0  0  0  0
   16.3310   -8.8680   17.2240 C   0  0  0  0  0  0  0  0  0  0  0  0
   15.7760   -6.0450   12.7580 C   0  0  0  0  0  0  0  0  0  0  0  0
   16.7320   -9.4900   16.0420 C   0  0  0  0  0  0  0  0  0  0  0  0
   17.7770   -4.9670   11.9770 C   0  0  0  0  0  0  0  0  0  0  0  0
   15.6930  -11.5540   16.7790 C   0  0  0  0  0  0  0  0  0  0  0  0
   15.0590   -5.4260   11.7170 C   0  0  0  0  0  0  0  0  0  0  0  0
   15.7080   -4.5810   10.8250 C   0  0  0  0  0  0  0  0  0  0  0  0
   17.9810   -6.4540   14.0290 C   0  0  0  0  0  0  0  0  0  0  0  0
   17.4860   -8.7420   15.0030 C   0  0  0  0  0  0  0  0  0  0  0  0
   17.2380   -7.3900   14.9020 N   0  0  0  0  0  0  0  0  0  0  0  0
   17.1550   -5.8280   12.8920 C   0  0  0  0  0  0  0  0  0  0  0  0
   14.8950   -5.4410   19.5300 O   0  0  0  0  0  0  0  0  0  0  0  0
   19.0820   -4.6900   12.1090 F   0  0  0  0  0  0  0  0  0  0  0  0
   16.6540   -7.0240   15.6510 H   0  0  0  0  0  0  0  0  0  0  0  0
   14.0130   -3.9490    9.8470 H   0  0  0  0  0  0  0  0  0  0  0  0
   17.4010   -6.1430   18.9030 H   0  0  0  0  0  0  0  0  0  0  0  0
   15.1990   -9.0860   19.0440 H   0  0  0  0  0  0  0  0  0  0  0  0
   16.7820  -11.3520   14.9220 H   0  0  0  0  0  0  0  0  0  0  0  0
   17.5810   -3.6970   10.2600 H   0  0  0  0  0  0  0  0  0  0  0  0
   15.2630   -6.6650   13.4800 H   0  0  0  0  0  0  0  0  0  0  0  0
   15.4750  -12.6110   16.6290 H   0  0  0  0  0  0  0  0  0  0  0  0
   13.9880   -5.5830   11.6310 H   0  0  0  0  0  0  0  0  0  0  0  0
   18.8490   -6.9810   13.6120 H   0  0  0  0  0  0  0  0  0  0  0  0
   18.3920   -5.6420   14.6460 H   0  0  0  0  0  0  0  0  0  0  0  0
   15.4860   -3.2270    9.3140 H   0  0  0  0  0  0  0  0  0  0  0  0
   16.3810   -7.3880   19.5870 H   0  0  0  0  0  0  0  0  0  0  0  0
  1  8  1  0  0  0  0
  2  4  1  0  0  0  0
  2 12  1  0  0  0  0
  3 18  1  0  0  0  0
  3 26  1  0  0  0  0
  3 36  1  0  0  0  0
  4  5  1  0  0  0  0
  4 27  1  0  0  0  0
  4 37  1  0  0  0  0
  5  6  1  0  0  0  0
  5 23  2  0  0  0  0
  7 20  2  0  0  0  0
  8  9  2  0  0  0  0
  8 16  1  0  0  0  0
  9 12  1  0  0  0  0
  9 28  1  0  0  0  0
 10 14  1  0  0  0  0
 10 16  2  0  0  0  0
 10 29  1  0  0  0  0
 11 15  2  0  0  0  0
 11 18  1  0  0  0  0
 11 30  1  0  0  0  0
 12 14  2  0  0  0  0
 13 17  1  0  0  0  0
 13 22  2  0  0  0  0
 13 31  1  0  0  0  0
 14 20  1  0  0  0  0
 15 22  1  0  0  0  0
 15 24  1  0  0  0  0
 16 32  1  0  0  0  0
 17 18  2  0  0  0  0
 17 33  1  0  0  0  0
 19 21  1  0  0  0  0
 19 22  1  0  0  0  0
 19 34  1  0  0  0  0
 19 35  1  0  0  0  0
 20 21  1  0  0  0  0
 21 25  1  0  0  0  0
M  CHG  1   6  -1
M  END
>  <deltaG_kcalmol>
-9.59

>  <charge>
-1

>  <lm5_entropy_jk>
21.38770610149616

>  <number_of_rotatable_bonds>
7

$$$$
