4QXI
 OpenBabel11252210453D

 37 38  0  0  0  0  0  0  0  0999 V2000
   14.4240  -11.6790   18.9440 Cl  0  0  0  0  0  0  0  0  0  0  0  0
   17.0990   -7.5560   17.4260 O   0  0  0  0  0  0  0  0  0  0  0  0
   15.2610   -3.8100    9.6490 N   0  0  0  0  0  0  0  0  0  0  0  0
   16.7850   -6.7310   18.5900 C   0  0  0  0  0  0  0  0  0  0  0  0
   15.5410   -5.8750   18.4410 C   0  0  0  0  0  0  0  0  0  0  0  0
   15.0590   -5.7140   17.3380 O   0  5  0  0  0  0  0  0  0  0  0  0
   18.3300   -9.1820   14.0510 O   0  0  0  0  0  0  0  0  0  0  0  0
   15.3450  -10.7830   17.7620 C   0  0  0  0  0  0  0  0  0  0  0  0
   15.7510   -9.4770   18.0310 C   0  0  0  0  0  0  0  0  0  0  0  0
   16.4820  -10.6940   15.6230 C   0  0  0  0  0  0  0  0  0  0  0  0
   17.2870   -4.2360   10.8000 C   0  0  0  0  0  0  0  0  0  0  0  0
   16.5350   -8.7750   17.1080 C   0  0  0  0  0  0  0  0  0  0  0  0
   15.9410   -5.9140   12.5930 C   0  0  0  0  0  0  0  0  0  0  0  0
   16.8530   -9.3620   15.8790 C   0  0  0  0  0  0  0  0  0  0  0  0
   17.9740   -4.8410   11.8520 C   0  0  0  0  0  0  0  0  0  0  0  0
   15.7280  -11.3990   16.5720 C   0  0  0  0  0  0  0  0  0  0  0  0
   15.2550   -5.2890   11.5330 C   0  0  0  0  0  0  0  0  0  0  0  0
   15.9280   -4.4460   10.6550 C   0  0  0  0  0  0  0  0  0  0  0  0
   18.1260   -6.3030   13.9180 C   0  0  0  0  0  0  0  0  0  0  0  0
   17.5950   -8.6070   14.8310 C   0  0  0  0  0  0  0  0  0  0  0  0
   17.3770   -7.2490   14.7760 N   0  0  0  0  0  0  0  0  0  0  0  0
   17.3220   -5.6940   12.7590 C   0  0  0  0  0  0  0  0  0  0  0  0
   15.0310   -5.4820   19.4790 O   0  0  0  0  0  0  0  0  0  0  0  0
   19.2850   -4.5770   12.0040 F   0  0  0  0  0  0  0  0  0  0  0  0
   16.8270   -6.8960   15.5570 H   0  0  0  0  0  0  0  0  0  0  0  0
   14.2460   -3.8020    9.6530 H   0  0  0  0  0  0  0  0  0  0  0  0
   17.5930   -6.0230   18.7700 H   0  0  0  0  0  0  0  0  0  0  0  0
   15.4870   -9.0300   18.9780 H   0  0  0  0  0  0  0  0  0  0  0  0
   16.7560  -11.1730   14.6800 H   0  0  0  0  0  0  0  0  0  0  0  0
   17.8160   -3.5690   10.1320 H   0  0  0  0  0  0  0  0  0  0  0  0
   15.3950   -6.5370   13.2990 H   0  0  0  0  0  0  0  0  0  0  0  0
   15.4280  -12.4270   16.3750 H   0  0  0  0  0  0  0  0  0  0  0  0
   14.1850   -5.4350   11.4250 H   0  0  0  0  0  0  0  0  0  0  0  0
   19.0170   -6.8070   13.5190 H   0  0  0  0  0  0  0  0  0  0  0  0
   18.5040   -5.4810   14.5430 H   0  0  0  0  0  0  0  0  0  0  0  0
   15.7320   -3.0630    9.1660 H   0  0  0  0  0  0  0  0  0  0  0  0
   16.6670   -7.3180   19.4990 H   0  0  0  0  0  0  0  0  0  0  0  0
  1  8  1  0  0  0  0
  2  4  1  0  0  0  0
  2 12  1  0  0  0  0
  3 18  1  0  0  0  0
  3 26  1  0  0  0  0
  3 36  1  0  0  0  0
  4  5  1  0  0  0  0
  4 27  1  0  0  0  0
  4 37  1  0  0  0  0
  5  6  1  0  0  0  0
  5 23  2  0  0  0  0
  7 20  2  0  0  0  0
  8  9  2  0  0  0  0
  8 16  1  0  0  0  0
  9 12  1  0  0  0  0
  9 28  1  0  0  0  0
 10 14  1  0  0  0  0
 10 16  2  0  0  0  0
 10 29  1  0  0  0  0
 11 15  2  0  0  0  0
 11 18  1  0  0  0  0
 11 30  1  0  0  0  0
 12 14  2  0  0  0  0
 13 17  1  0  0  0  0
 13 22  2  0  0  0  0
 13 31  1  0  0  0  0
 14 20  1  0  0  0  0
 15 22  1  0  0  0  0
 15 24  1  0  0  0  0
 16 32  1  0  0  0  0
 17 18  2  0  0  0  0
 17 33  1  0  0  0  0
 19 21  1  0  0  0  0
 19 22  1  0  0  0  0
 19 34  1  0  0  0  0
 19 35  1  0  0  0  0
 20 21  1  0  0  0  0
 21 25  1  0  0  0  0
M  CHG  1   6  -1
M  END
>  <deltaG_kcalmol>
-9.59

>  <charge>
-1

>  <lm5_entropy_jk>
21.38770610149616

>  <number_of_rotatable_bonds>
7

$$$$
