3rpv.pdb
 OpenBabel11252210453D

 41 43  0  0  0  0  0  0  0  0999 V2000
   65.9520  154.3670  -50.4400 N   0  0  0  0  0  0  0  0  0  0  0  0
   64.6200  154.8840  -48.5460 N   0  0  0  0  0  0  0  0  0  0  0  0
   67.4790  153.4740  -52.0700 N   0  0  0  0  0  0  0  0  0  0  0  0
   67.1600  148.6560  -46.1440 N   0  0  0  0  0  0  0  0  0  0  0  0
   62.0540  152.8170  -42.6590 N   0  0  0  0  0  0  0  0  0  0  0  0
   67.5610  152.6990  -49.7560 C   0  0  0  0  0  0  0  0  0  0  0  0
   67.0390  153.5100  -50.7890 C   0  0  0  0  0  0  0  0  0  0  0  0
   65.6440  154.1660  -49.1410 C   0  0  0  0  0  0  0  0  0  0  0  0
   63.9170  154.5700  -47.3460 C   0  0  0  0  0  0  0  0  0  0  0  0
   68.5220  151.6510  -49.9230 C   0  0  0  0  0  0  0  0  0  0  0  0
   68.8200  150.7310  -48.7700 C   0  0  0  0  0  0  0  0  0  0  0  0
   70.1640  150.4320  -48.5150 C   0  0  0  0  0  0  0  0  0  0  0  0
   70.4840  149.4890  -47.5320 C   0  0  0  0  0  0  0  0  0  0  0  0
   69.4870  148.8730  -46.7850 C   0  0  0  0  0  0  0  0  0  0  0  0
   68.1350  149.2040  -47.0160 C   0  0  0  0  0  0  0  0  0  0  0  0
   67.8000  150.1240  -48.0310 C   0  0  0  0  0  0  0  0  0  0  0  0
   64.0730  153.3890  -46.6060 C   0  0  0  0  0  0  0  0  0  0  0  0
   63.3030  153.1920  -45.4560 C   0  0  0  0  0  0  0  0  0  0  0  0
   62.3550  154.1380  -45.0520 C   0  0  0  0  0  0  0  0  0  0  0  0
   62.2110  155.3240  -45.7870 C   0  0  0  0  0  0  0  0  0  0  0  0
   62.9830  155.5440  -46.9200 C   0  0  0  0  0  0  0  0  0  0  0  0
   69.1030  151.4760  -50.9930 O   0  0  0  0  0  0  0  0  0  0  0  0
   60.1170  153.1010  -44.3950 O   0  0  0  0  0  0  0  0  0  0  0  0
   60.8930  155.0210  -43.0240 O   0  0  0  0  0  0  0  0  0  0  0  0
   66.7380  152.9900  -48.2690 S   0  0  0  0  0  0  0  0  0  0  0  0
   61.2430  153.8070  -43.7790 S   0  0  0  0  0  0  0  0  0  0  0  0
   64.0620  155.5100  -49.1870 H   0  0  0  0  0  0  0  0  0  0  0  0
   67.0920  154.1110  -52.7910 H   0  0  0  0  0  0  0  0  0  0  0  0
   68.2660  152.8590  -52.3210 H   0  0  0  0  0  0  0  0  0  0  0  0
   66.1700  148.7410  -46.4320 H   0  0  0  0  0  0  0  0  0  0  0  0
   67.3790  147.6890  -45.8340 H   0  0  0  0  0  0  0  0  0  0  0  0
   62.1590  151.8010  -42.9420 H   0  0  0  0  0  0  0  0  0  0  0  0
   61.8510  152.9000  -41.6540 H   0  0  0  0  0  0  0  0  0  0  0  0
   70.9580  150.9160  -49.0890 H   0  0  0  0  0  0  0  0  0  0  0  0
   71.5180  149.2060  -47.3550 H   0  0  0  0  0  0  0  0  0  0  0  0
   69.7400  148.1300  -46.0250 H   0  0  0  0  0  0  0  0  0  0  0  0
   66.7470  150.3290  -48.2280 H   0  0  0  0  0  0  0  0  0  0  0  0
   64.7520  152.5880  -46.9040 H   0  0  0  0  0  0  0  0  0  0  0  0
   63.4670  152.2690  -44.8880 H   0  0  0  0  0  0  0  0  0  0  0  0
   61.4850  156.0950  -45.4960 H   0  0  0  0  0  0  0  0  0  0  0  0
   62.8450  156.4620  -47.4950 H   0  0  0  0  0  0  0  0  0  0  0  0
  1  8  2  0  0  0  0
  2  9  1  0  0  0  0
  2 27  1  0  0  0  0
  3  7  1  0  0  0  0
  3 28  1  0  0  0  0
  3 29  1  0  0  0  0
  4 30  1  0  0  0  0
  4 31  1  0  0  0  0
  5 32  1  0  0  0  0
  5 33  1  0  0  0  0
  6 25  1  0  0  0  0
  7  1  1  0  0  0  0
  7  6  2  0  0  0  0
  8  2  1  0  0  0  0
  8 25  1  0  0  0  0
  9 21  2  0  0  0  0
  9 17  1  0  0  0  0
 10  6  1  0  0  0  0
 10 11  1  0  0  0  0
 11 12  2  0  0  0  0
 11 16  1  0  0  0  0
 12 13  1  0  0  0  0
 12 34  1  0  0  0  0
 13 14  2  0  0  0  0
 13 35  1  0  0  0  0
 14 36  1  0  0  0  0
 15 14  1  0  0  0  0
 15  4  1  0  0  0  0
 16 15  2  0  0  0  0
 16 37  1  0  0  0  0
 17 18  2  0  0  0  0
 17 38  1  0  0  0  0
 18 19  1  0  0  0  0
 18 39  1  0  0  0  0
 19 26  1  0  0  0  0
 20 19  2  0  0  0  0
 20 40  1  0  0  0  0
 21 20  1  0  0  0  0
 21 41  1  0  0  0  0
 22 10  2  0  0  0  0
 23 26  2  0  0  0  0
 26 24  2  0  0  0  0
 26  5  1  0  0  0  0
M  END
>  <lm5_entropy_jk>
21.154920599914565

>  <number_of_rotatable_bonds>
5

>  <IC50_NM>
70

>  <charge>
0

$$$$
