3KXM
 OpenBabel11252210453D

 29 30  0  0  1  0  0  0  0  0999 V2000
   23.3710    7.1710   18.2620 C   0  0  0  0  0  0  0  0  0  0  0  0
   23.0930    6.5950   19.5180 C   0  0  0  0  0  0  0  0  0  0  0  0
   22.1630    7.2240   20.4250 C   0  0  0  0  0  0  0  0  0  0  0  0
   21.4760    8.3890   20.0290 C   0  0  0  0  0  0  0  0  0  0  0  0
   21.7140    8.9000   18.7630 C   0  0  0  0  0  0  0  0  0  0  0  0
   22.6750    8.3050   17.8880 C   0  0  0  0  0  0  0  0  0  0  0  0
   23.6100    5.4290   20.0790 N   0  0  0  0  0  0  0  0  0  0  0  0
   23.0170    5.3150   21.2940 C   0  0  0  0  0  0  0  0  0  0  0  0
   22.1430    6.4110   21.5620 N   0  0  0  0  0  0  0  0  0  0  0  0
   23.2410    4.0010   22.4700 S   0  0  0  0  0  0  0  0  0  0  0  0
   23.2620    2.5140   21.4630 C   0  0  0  0  0  0  0  0  0  0  0  0
   24.6360    2.2350   20.8800 C   0  0  0  0  0  0  0  0  0  0  0  0
   24.6190    1.4150   19.7560 N   0  0  0  0  0  0  0  0  0  0  0  0
   25.6740    2.6650   21.3540 O   0  0  0  0  0  0  0  0  0  0  0  0
   25.8510    0.9890   19.0550 C   0  0  0  0  0  0  0  0  0  0  0  0
   21.3950    6.6250   22.8050 C   0  0  0  0  0  0  0  0  0  0  0  0
   24.6900    6.3110   17.2270 Br  0  0  0  0  0  0  0  0  0  0  0  0
   23.0090    9.0930   16.1950 Br  0  0  0  0  0  0  0  0  0  0  0  0
   20.7620   10.4360   18.1680 Br  0  0  0  0  0  0  0  0  0  0  0  0
   20.2480    9.1670   21.2470 Br  0  0  0  0  0  0  0  0  0  0  0  0
   21.6850    7.5980   23.2900 H   0  0  0  0  0  0  0  0  0  0  0  0
   22.4560    2.5400   20.6790 H   0  0  0  0  0  0  0  0  0  0  0  0
   23.7470    1.0160   19.3980 H   0  0  0  0  0  0  0  0  0  0  0  0
   26.6070    1.8130   19.0320 H   0  0  0  0  0  0  0  0  0  0  0  0
   21.5850    5.7930   23.5390 H   0  0  0  0  0  0  0  0  0  0  0  0
   22.9710    1.6700   22.1590 H   0  0  0  0  0  0  0  0  0  0  0  0
   25.5840    0.7190   17.9970 H   0  0  0  0  0  0  0  0  0  0  0  0
   20.2880    6.6380   22.5970 H   0  0  0  0  0  0  0  0  0  0  0  0
   26.2910    0.0880   19.5580 H   0  0  0  0  0  0  0  0  0  0  0  0
  1  2  2  0  0  0  0
  1  6  1  0  0  0  0
  1 17  1  0  0  0  0
  2  3  1  0  0  0  0
  2  7  1  0  0  0  0
  3  4  2  0  0  0  0
  3  9  1  0  0  0  0
  4  5  1  0  0  0  0
  4 20  1  0  0  0  0
  5  6  2  0  0  0  0
  5 19  1  0  0  0  0
  6 18  1  0  0  0  0
  7  8  2  0  0  0  0
  8  9  1  0  0  0  0
  8 10  1  0  0  0  0
  9 16  1  0  0  0  0
 10 11  1  0  0  0  0
 11 12  1  0  0  0  0
 11 22  1  0  0  0  0
 11 26  1  0  0  0  0
 12 13  1  0  0  0  0
 12 14  2  0  0  0  0
 13 15  1  0  0  0  0
 13 23  1  0  0  0  0
 15 24  1  0  0  0  0
 15 27  1  0  0  0  0
 15 29  1  0  0  0  0
 16 21  1  0  0  0  0
 16 25  1  0  0  0  0
 16 28  1  0  0  0  0
M  END
>  <Ki_NM>
280

>  <charge>
0

>  <number_of_rotatable_bonds>
4

>  <lm5_entropy_jk>
36.06614597483307

$$$$
