4EI4
 OpenBabel11252210453D

 38 41  0  0  1  0  0  0  0  0999 V2000
  -11.4150   29.2610    0.7170 C   0  0  0  0  0  0  0  0  0  0  0  0
  -12.5670   28.3360    0.5980 C   0  0  0  0  0  0  0  0  0  0  0  0
  -12.4860   27.0900    1.0670 N   0  0  0  0  0  0  0  0  0  0  0  0
  -13.6750   26.5670    0.7190 C   0  0  0  0  0  0  0  0  0  0  0  0
  -14.0890   25.2450    0.9320 C   0  0  0  0  0  0  0  0  0  0  0  0
  -15.2870   24.7940    0.4820 N   0  0  0  0  0  0  0  0  0  0  0  0
  -16.0830   25.6740   -0.1640 C   0  0  0  0  0  0  0  0  0  0  0  0
  -15.7470   27.0020   -0.3770 C   0  0  0  0  0  0  0  0  0  0  0  0
  -14.4850   27.4530    0.0780 C   0  0  0  0  0  0  0  0  0  0  0  0
  -13.7880   28.6460   -0.0320 N   0  0  0  0  0  0  0  0  0  0  0  0
  -14.1510   29.9540   -0.6070 C   0  0  2  0  0  0  0  0  0  0  0  0
  -15.3110   30.6300    0.1440 C   0  0  0  0  0  0  0  0  0  0  0  0
  -15.6200   32.0390   -0.4310 C   0  0  0  0  0  0  0  0  0  0  0  0
  -15.9150   31.9120   -1.9520 C   0  0  0  0  0  0  0  0  0  0  0  0
  -14.7630   31.2700   -2.7410 C   0  0  2  0  0  0  0  0  0  0  0  0
  -14.3690   29.9160   -2.1360 C   0  0  0  0  0  0  0  0  0  0  0  0
  -13.6390   32.1240   -2.6690 O   0  0  0  0  0  0  0  0  0  0  0  0
  -16.8440   27.6140   -1.0980 C   0  0  0  0  0  0  0  0  0  0  0  0
  -17.7830   26.6160   -1.3330 C   0  0  0  0  0  0  0  0  0  0  0  0
  -17.3080   25.4310   -0.7380 N   0  0  0  0  0  0  0  0  0  0  0  0
  -13.4470   24.5420    1.4590 H   0  0  0  0  0  0  0  0  0  0  0  0
  -13.2890   30.6170   -0.4510 H   0  0  0  0  0  0  0  0  0  0  0  0
  -16.1940   29.9880    0.1010 H   0  0  0  0  0  0  0  0  0  0  0  0
  -15.0470   30.6910    1.2090 H   0  0  0  0  0  0  0  0  0  0  0  0
  -16.4690   32.5080    0.0890 H   0  0  0  0  0  0  0  0  0  0  0  0
  -14.7670   32.7170   -0.2700 H   0  0  0  0  0  0  0  0  0  0  0  0
  -16.1590   32.8950   -2.3810 H   0  0  0  0  0  0  0  0  0  0  0  0
  -16.8200   31.3030   -2.0980 H   0  0  0  0  0  0  0  0  0  0  0  0
  -15.0720   31.1310   -3.7910 H   0  0  0  0  0  0  0  0  0  0  0  0
  -13.4570   29.5470   -2.6170 H   0  0  0  0  0  0  0  0  0  0  0  0
  -15.1350   29.1770   -2.3740 H   0  0  0  0  0  0  0  0  0  0  0  0
  -16.9680   28.6390   -1.4250 H   0  0  0  0  0  0  0  0  0  0  0  0
  -18.7290   26.6600   -1.8650 H   0  0  0  0  0  0  0  0  0  0  0  0
  -17.7830   24.5300   -0.7080 H   0  0  0  0  0  0  0  0  0  0  0  0
  -10.6180   28.7980    1.3090 H   0  0  0  0  0  0  0  0  0  0  0  0
  -11.6990   30.1820    1.2310 H   0  0  0  0  0  0  0  0  0  0  0  0
  -10.9960   29.5040   -0.2620 H   0  0  0  0  0  0  0  0  0  0  0  0
  -13.5470   32.5080   -3.5600 H   0  0  0  0  0  0  0  0  0  0  0  0
  1  2  1  0  0  0  0
  2 10  1  0  0  0  0
  2  3  2  0  0  0  0
  4  5  2  0  0  0  0
  4  9  1  0  0  0  0
  4  3  1  0  0  0  0
  5  6  1  0  0  0  0
  7  8  1  0  0  0  0
  7 20  1  0  0  0  0
  7  6  2  0  0  0  0
  8  9  2  0  0  0  0
  9 10  1  0  0  0  0
 11 12  1  0  0  0  0
 11 16  1  0  0  0  0
 11 10  1  0  0  0  0
 11 22  1  1  0  0  0
 12 13  1  0  0  0  0
 13 14  1  0  0  0  0
 14 15  1  0  0  0  0
 15 16  1  0  0  0  0
 15 17  1  0  0  0  0
 15 29  1  6  0  0  0
 18 19  2  0  0  0  0
 18  8  1  0  0  0  0
 19 20  1  0  0  0  0
 21  5  1  0  0  0  0
 23 12  1  0  0  0  0
 24 12  1  0  0  0  0
 25 13  1  0  0  0  0
 26 13  1  0  0  0  0
 27 14  1  0  0  0  0
 28 14  1  0  0  0  0
 30 16  1  0  0  0  0
 31 16  1  0  0  0  0
 32 18  1  0  0  0  0
 33 19  1  0  0  0  0
 34 20  1  0  0  0  0
 35  1  1  0  0  0  0
 36  1  1  0  0  0  0
 37  1  1  0  0  0  0
 38 17  1  0  0  0  0
M  END
>  <charge>
0

>  <pKi>
8.74

>  <number_of_rotatable_bonds>
1

>  <lm5_entropy_jk>
22.786904138289753

$$$$
