3f18.pdb
 OpenBabel11252210453D

 32 32  0  0  0  0  0  0  0  0999 V2000
    5.6450   25.6110    4.4360 C   0  0  0  0  0  0  0  0  0  0  0  0
    8.5520   23.8340    1.3960 N   0  0  0  0  0  0  0  0  0  0  0  0
    5.8190   29.5020    1.0190 O   0  0  0  0  0  0  0  0  0  0  0  0
    8.0490   26.7030    3.8300 S   0  0  0  0  0  0  0  0  0  0  0  0
    4.8180   24.5660    4.8520 C   0  0  0  0  0  0  0  0  0  0  0  0
    7.8580   27.0740    2.1380 N   0  0  0  0  0  0  0  0  0  0  0  0
    7.9860   22.6570    0.8640 O   0  0  0  0  0  0  0  0  0  0  0  0
    6.9950   25.3780    4.1350 C   0  0  0  0  0  0  0  0  0  0  0  0
    6.8720   24.8520    0.2400 O   0  0  0  0  0  0  0  0  0  0  0  0
    5.3730   23.2850    4.9340 C   0  0  0  0  0  0  0  0  0  0  0  0
    9.4310   26.2950    4.0880 O   0  0  0  0  0  0  0  0  0  0  0  0
    7.5030   24.0700    4.1670 C   0  0  0  0  0  0  0  0  0  0  0  0
    7.5790   27.8710    4.5620 O   0  0  0  0  0  0  0  0  0  0  0  0
    7.0570   28.9070    0.6120 C   0  0  0  0  0  0  0  0  0  0  0  0
    6.6860   23.0040    4.5500 C   0  0  0  0  0  0  0  0  0  0  0  0
    7.9400   28.5370    1.8210 C   0  0  0  0  0  0  0  0  0  0  0  0
    7.9270   24.9910    0.8330 C   0  0  0  0  0  0  0  0  0  0  0  0
    8.6870   26.2650    1.2060 C   0  0  0  0  0  0  0  0  0  0  0  0
    4.6200   22.3000    5.4140 F   0  0  0  0  0  0  0  0  0  0  0  0
    5.2210   26.6180    4.3650 H   0  0  0  0  0  0  0  0  0  0  0  0
    9.5950   23.7420    1.4130 H   0  0  0  0  0  0  0  0  0  0  0  0
    5.3430   28.8830    1.6600 H   0  0  0  0  0  0  0  0  0  0  0  0
    3.7680   24.7480    5.0980 H   0  0  0  0  0  0  0  0  0  0  0  0
    8.2480   21.9200    1.6230 H   0  0  0  0  0  0  0  0  0  0  0  0
    8.5470   23.8600    3.8960 H   0  0  0  0  0  0  0  0  0  0  0  0
    6.8450   28.0210   -0.0200 H   0  0  0  0  0  0  0  0  0  0  0  0
    7.5430   29.7200    0.0170 H   0  0  0  0  0  0  0  0  0  0  0  0
    7.0790   21.9850    4.5170 H   0  0  0  0  0  0  0  0  0  0  0  0
    7.5790   29.1320    2.7090 H   0  0  0  0  0  0  0  0  0  0  0  0
    8.9960   28.8420    1.5970 H   0  0  0  0  0  0  0  0  0  0  0  0
    8.8950   26.8280    0.2470 H   0  0  0  0  0  0  0  0  0  0  0  0
    9.7050   26.0320    1.6430 H   0  0  0  0  0  0  0  0  0  0  0  0
  1  8  2  0  0  0  0
  1  5  1  0  0  0  0
  1 20  1  0  0  0  0
  2  7  1  0  0  0  0
  2 17  1  0  0  0  0
  2 21  1  0  0  0  0
  3 14  1  0  0  0  0
  3 22  1  0  0  0  0
  4  6  1  0  0  0  0
  4 11  2  0  0  0  0
  4  8  1  0  0  0  0
  4 13  2  0  0  0  0
  5 10  2  0  0  0  0
  5 23  1  0  0  0  0
  6 18  1  0  0  0  0
  6 16  1  0  0  0  0
  7 24  1  0  0  0  0
  8 12  1  0  0  0  0
  9 17  2  0  0  0  0
 10 15  1  0  0  0  0
 10 19  1  0  0  0  0
 12 15  2  0  0  0  0
 12 25  1  0  0  0  0
 14 16  1  0  0  0  0
 14 26  1  0  0  0  0
 14 27  1  0  0  0  0
 15 28  1  0  0  0  0
 16 29  1  0  0  0  0
 16 30  1  0  0  0  0
 17 18  1  0  0  0  0
 18 31  1  0  0  0  0
 18 32  1  0  0  0  0
M  END
>  <COMPND>
3f18.pdb

>  <AUTHOR>
GENERATED BY OPEN BABEL 2.3.1

>  <MASTER>
0    0    0    0    0    0    0    0   32    0   32    0

>  <lm5_entropy_jk>
21.516358747656277

>  <number_of_rotatable_bonds>
7

>  <deltaG_kcalmol>
-10.11

>  <charge>
0

$$$$
