1IZH
 OpenBabel11252210453D

 99101  0  0  1  0  0  0  0  0999 V2000
    9.1380   -4.9700   16.5120 C   0  0  0  0  0  0  0  0  0  0  0  0
    9.8920   -5.3130   17.8010 C   0  0  0  0  0  0  0  0  0  0  0  0
    8.9990   -6.1680   15.5770 C   0  0  0  0  0  0  0  0  0  0  0  0
    9.6740   -3.7170   15.8210 C   0  0  0  0  0  0  0  0  0  0  0  0
    7.7790   -4.6420   17.0530 O   0  0  0  0  0  0  0  0  0  0  0  0
    6.8260   -4.0940   16.2240 C   0  0  0  0  0  0  0  0  0  0  0  0
    6.7950   -4.1810   15.0030 O   0  0  0  0  0  0  0  0  0  0  0  0
    5.8800   -3.4380   16.9970 N   0  0  0  0  0  0  0  0  0  0  0  0
    4.6850   -2.8420   16.3530 C   0  0  1  0  0  0  0  0  0  0  0  0
    3.4250   -3.1530   17.1880 C   0  0  0  0  0  0  0  0  0  0  0  0
    3.1340   -4.6310   17.1660 C   0  0  0  0  0  0  0  0  0  0  0  0
    3.4460   -5.4350   18.2720 C   0  0  0  0  0  0  0  0  0  0  0  0
    3.2210   -6.8140   18.2260 C   0  0  0  0  0  0  0  0  0  0  0  0
    2.6780   -7.4020   17.0800 C   0  0  0  0  0  0  0  0  0  0  0  0
    2.3520   -6.6010   15.9800 C   0  0  0  0  0  0  0  0  0  0  0  0
    2.5800   -5.2240   16.0190 C   0  0  0  0  0  0  0  0  0  0  0  0
    4.8760   -1.3130   16.1020 C   0  0  1  0  0  0  0  0  0  0  0  0
    4.9800   -0.5930   17.3400 O   0  0  0  0  0  0  0  0  0  0  0  0
    6.0900   -1.0300   15.2020 C   0  0  0  0  0  0  0  0  0  0  0  0
    5.9770    0.3510   14.5360 C   0  0  1  0  0  0  0  0  0  0  0  0
    7.3510    0.9450   14.1480 C   0  0  0  0  0  0  0  0  0  0  0  0
    7.6150    0.9900   12.6700 C   0  0  0  0  0  0  0  0  0  0  0  0
    8.0740   -0.1410   11.9780 C   0  0  0  0  0  0  0  0  0  0  0  0
    8.2700   -0.0780   10.5960 C   0  0  0  0  0  0  0  0  0  0  0  0
    8.0140    1.1070    9.9000 C   0  0  0  0  0  0  0  0  0  0  0  0
    7.5970    2.2470   10.5930 C   0  0  0  0  0  0  0  0  0  0  0  0
    7.3950    2.1900   11.9730 C   0  0  0  0  0  0  0  0  0  0  0  0
    5.0330    0.2380   13.3340 C   0  0  0  0  0  0  0  0  0  0  0  0
    4.8570   -0.8040   12.7190 O   0  0  0  0  0  0  0  0  0  0  0  0
    4.3480    1.4180   13.0160 N   0  0  0  0  0  0  0  0  0  0  0  0
    3.4070    1.5080   11.8810 C   0  0  1  0  0  0  0  0  0  0  0  0
    1.9780    1.1050   12.3250 C   0  0  0  0  0  0  0  0  0  0  0  0
    0.8780    1.4520   11.3170 C   0  0  0  0  0  0  0  0  0  0  0  0
    0.4510    2.9100   11.4320 C   0  0  0  0  0  0  0  0  0  0  0  0
    0.5310    3.5550   12.4640 O   0  0  0  0  0  0  0  0  0  0  0  0
   -0.0640    3.4880   10.2700 N   0  0  0  0  0  0  0  0  0  0  0  0
    3.4210    2.9570   11.3230 C   0  0  0  0  0  0  0  0  0  0  0  0
    3.5150    3.9630   12.0030 O   0  0  0  0  0  0  0  0  0  0  0  0
    3.2690    3.0160    9.9280 N   0  0  0  0  0  0  0  0  0  0  0  0
    3.1280    4.2940    9.2090 C   0  0  1  0  0  0  0  0  0  0  0  0
    4.4400    4.8250    8.5860 C   0  0  0  0  0  0  0  0  0  0  0  0
    4.9210    4.0910    7.3640 C   0  0  0  0  0  0  0  0  0  0  0  0
    5.5820    2.8590    7.4780 C   0  0  0  0  0  0  0  0  0  0  0  0
    6.0920    2.2260    6.3420 C   0  0  0  0  0  0  0  0  0  0  0  0
    5.9140    2.7960    5.0780 C   0  0  0  0  0  0  0  0  0  0  0  0
    5.2330    4.0120    4.9560 C   0  0  0  0  0  0  0  0  0  0  0  0
    4.7460    4.6620    6.0920 C   0  0  0  0  0  0  0  0  0  0  0  0
    2.0830    4.1310    8.0750 C   0  0  0  0  0  0  0  0  0  0  0  0
    2.0210    3.1830    7.3080 O   0  0  0  0  0  0  0  0  0  0  0  0
    1.2190    5.2160    7.9270 N   0  0  0  0  0  0  0  0  0  0  0  0
   10.2400   -4.3940   18.3190 H   0  0  0  0  0  0  0  0  0  0  0  0
    9.2360   -5.9000   18.4820 H   0  0  0  0  0  0  0  0  0  0  0  0
   10.7900   -5.9280   17.5530 H   0  0  0  0  0  0  0  0  0  0  0  0
    8.1670   -5.9860   14.8590 H   0  0  0  0  0  0  0  0  0  0  0  0
    9.9400   -6.3230   15.0100 H   0  0  0  0  0  0  0  0  0  0  0  0
    8.7690   -7.0960   16.1470 H   0  0  0  0  0  0  0  0  0  0  0  0
   10.7680   -3.8090   15.6540 H   0  0  0  0  0  0  0  0  0  0  0  0
    9.1730   -3.5640   14.8390 H   0  0  0  0  0  0  0  0  0  0  0  0
    9.4920   -2.8220   16.4550 H   0  0  0  0  0  0  0  0  0  0  0  0
    5.9580   -3.3730   18.0180 H   0  0  0  0  0  0  0  0  0  0  0  0
    4.5540   -3.3160   15.3350 H   0  0  0  0  0  0  0  0  0  0  0  0
    2.5560   -2.5830   16.7750 H   0  0  0  0  0  0  0  0  0  0  0  0
    3.5670   -2.7900   18.2370 H   0  0  0  0  0  0  0  0  0  0  0  0
    3.8660   -4.9870   19.1740 H   0  0  0  0  0  0  0  0  0  0  0  0
    3.4670   -7.4340   19.0930 H   0  0  0  0  0  0  0  0  0  0  0  0
    2.5040   -8.4800   17.0490 H   0  0  0  0  0  0  0  0  0  0  0  0
    1.9100   -7.0500   15.0920 H   0  0  0  0  0  0  0  0  0  0  0  0
    2.3140   -4.6080   15.1590 H   0  0  0  0  0  0  0  0  0  0  0  0
    3.9280   -0.9080   15.6660 H   0  0  0  0  0  0  0  0  0  0  0  0
    5.9220   -0.2260   17.4650 H   0  0  0  0  0  0  0  0  0  0  0  0
    6.2130   -1.8180   14.4250 H   0  0  0  0  0  0  0  0  0  0  0  0
    7.0100   -1.0430   15.8410 H   0  0  0  0  0  0  0  0  0  0  0  0
    5.5480    1.0540   15.3010 H   0  0  0  0  0  0  0  0  0  0  0  0
    8.1590    0.3740   14.6720 H   0  0  0  0  0  0  0  0  0  0  0  0
    7.3890    1.9830   14.5700 H   0  0  0  0  0  0  0  0  0  0  0  0
    8.2850   -1.0630   12.5210 H   0  0  0  0  0  0  0  0  0  0  0  0
    8.6310   -0.9520   10.0560 H   0  0  0  0  0  0  0  0  0  0  0  0
    8.1380    1.1480    8.8180 H   0  0  0  0  0  0  0  0  0  0  0  0
    7.4380    3.1870   10.0610 H   0  0  0  0  0  0  0  0  0  0  0  0
    7.0650    3.0790   12.5140 H   0  0  0  0  0  0  0  0  0  0  0  0
    4.4950    2.2780   13.5790 H   0  0  0  0  0  0  0  0  0  0  0  0
    3.7530    0.7860   11.0870 H   0  0  0  0  0  0  0  0  0  0  0  0
    1.7380    1.5860   13.3030 H   0  0  0  0  0  0  0  0  0  0  0  0
    1.9770   -0.0070   12.4700 H   0  0  0  0  0  0  0  0  0  0  0  0
   -0.0250    0.8200   11.5410 H   0  0  0  0  0  0  0  0  0  0  0  0
    1.2150    1.1890   10.2830 H   0  0  0  0  0  0  0  0  0  0  0  0
   -0.1350    2.9980    9.3900 H   0  0  0  0  0  0  0  0  0  0  0  0
   -0.3910    4.4760   10.2650 H   0  0  0  0  0  0  0  0  0  0  0  0
    3.2660    2.1480    9.3630 H   0  0  0  0  0  0  0  0  0  0  0  0
    2.7780    5.0750    9.9510 H   0  0  0  0  0  0  0  0  0  0  0  0
    5.2400    4.8090    9.3730 H   0  0  0  0  0  0  0  0  0  0  0  0
    4.2560    5.9070    8.3410 H   0  0  0  0  0  0  0  0  0  0  0  0
    5.7040    2.3930    8.4580 H   0  0  0  0  0  0  0  0  0  0  0  0
    6.6390    1.2840    6.4410 H   0  0  0  0  0  0  0  0  0  0  0  0
    6.3110    2.3000    4.1880 H   0  0  0  0  0  0  0  0  0  0  0  0
    5.0920    4.4640    3.9680 H   0  0  0  0  0  0  0  0  0  0  0  0
    4.2330    5.6230    5.9840 H   0  0  0  0  0  0  0  0  0  0  0  0
    1.1810    5.9890    8.5960 H   0  0  0  0  0  0  0  0  0  0  0  0
    0.5090    5.2430    7.1910 H   0  0  0  0  0  0  0  0  0  0  0  0
  1  2  1  0  0  0  0
  1  3  1  0  0  0  0
  1  4  1  0  0  0  0
  1  5  1  0  0  0  0
  2 51  1  0  0  0  0
  2 52  1  0  0  0  0
  2 53  1  0  0  0  0
  3 54  1  0  0  0  0
  3 55  1  0  0  0  0
  3 56  1  0  0  0  0
  4 57  1  0  0  0  0
  4 58  1  0  0  0  0
  4 59  1  0  0  0  0
  5  6  1  0  0  0  0
  6  7  2  0  0  0  0
  6  8  1  0  0  0  0
  8  9  1  0  0  0  0
  8 60  1  0  0  0  0
  9 10  1  0  0  0  0
  9 17  1  0  0  0  0
  9 61  1  6  0  0  0
 10 11  1  0  0  0  0
 10 62  1  0  0  0  0
 10 63  1  0  0  0  0
 11 12  2  0  0  0  0
 11 16  1  0  0  0  0
 12 13  1  0  0  0  0
 12 64  1  0  0  0  0
 13 14  2  0  0  0  0
 13 65  1  0  0  0  0
 14 15  1  0  0  0  0
 14 66  1  0  0  0  0
 15 16  2  0  0  0  0
 15 67  1  0  0  0  0
 16 68  1  0  0  0  0
 17 18  1  0  0  0  0
 17 19  1  0  0  0  0
 17 69  1  6  0  0  0
 18 70  1  0  0  0  0
 19 20  1  0  0  0  0
 19 71  1  0  0  0  0
 19 72  1  0  0  0  0
 20 21  1  0  0  0  0
 20 28  1  0  0  0  0
 20 73  1  1  0  0  0
 21 22  1  0  0  0  0
 21 74  1  0  0  0  0
 21 75  1  0  0  0  0
 22 23  2  0  0  0  0
 22 27  1  0  0  0  0
 23 24  1  0  0  0  0
 23 76  1  0  0  0  0
 24 25  2  0  0  0  0
 24 77  1  0  0  0  0
 25 26  1  0  0  0  0
 25 78  1  0  0  0  0
 26 27  2  0  0  0  0
 26 79  1  0  0  0  0
 27 80  1  0  0  0  0
 28 29  2  0  0  0  0
 28 30  1  0  0  0  0
 30 31  1  0  0  0  0
 30 81  1  0  0  0  0
 31 32  1  0  0  0  0
 31 37  1  0  0  0  0
 31 82  1  6  0  0  0
 32 33  1  0  0  0  0
 32 83  1  0  0  0  0
 32 84  1  0  0  0  0
 33 34  1  0  0  0  0
 33 85  1  0  0  0  0
 33 86  1  0  0  0  0
 34 35  2  0  0  0  0
 34 36  1  0  0  0  0
 36 87  1  0  0  0  0
 36 88  1  0  0  0  0
 37 38  2  0  0  0  0
 37 39  1  0  0  0  0
 39 40  1  0  0  0  0
 39 89  1  0  0  0  0
 40 41  1  0  0  0  0
 40 48  1  0  0  0  0
 40 90  1  1  0  0  0
 41 42  1  0  0  0  0
 41 91  1  0  0  0  0
 41 92  1  0  0  0  0
 42 43  2  0  0  0  0
 42 47  1  0  0  0  0
 43 44  1  0  0  0  0
 43 93  1  0  0  0  0
 44 45  2  0  0  0  0
 44 94  1  0  0  0  0
 45 46  1  0  0  0  0
 45 95  1  0  0  0  0
 46 47  2  0  0  0  0
 46 96  1  0  0  0  0
 47 97  1  0  0  0  0
 48 49  2  0  0  0  0
 48 50  1  0  0  0  0
 50 98  1  0  0  0  0
 50 99  1  0  0  0  0
M  END
>  <charge>
0

>  <KI_NM>
0.021

>  <number_of_rotatable_bonds>
23

>  <lm5_entropy_jk>
43.79390162832084

>  <ligand_crystal_conformation>
A

$$$$
