4LBS
 OpenBabel11252210453D

 35 36  0  0  0  0  0  0  0  0999 V2000
   14.1520  -11.8560   18.7750 Cl  0  0  0  0  0  0  0  0  0  0  0  0
   17.7590   -5.8720   13.2470 C   0  0  0  0  0  0  0  0  0  0  0  0
   18.3730   -4.9500   12.3790 C   0  0  0  0  0  0  0  0  0  0  0  0
   16.4070   -6.1320   12.9650 C   0  0  0  0  0  0  0  0  0  0  0  0
   17.7330   -4.3160   11.3120 C   0  0  0  0  0  0  0  0  0  0  0  0
   15.7060   -5.5310   11.9070 C   0  0  0  0  0  0  0  0  0  0  0  0
   16.3860   -4.6130   11.1130 C   0  0  0  0  0  0  0  0  0  0  0  0
   18.5670   -6.4610   14.3880 C   0  0  0  0  0  0  0  0  0  0  0  0
   17.8150   -7.3090   15.3220 N   0  0  0  0  0  0  0  0  0  0  0  0
   17.7330   -8.6900   15.1450 C   0  0  0  0  0  0  0  0  0  0  0  0
   16.9370   -9.4700   16.1340 C   0  0  0  0  0  0  0  0  0  0  0  0
   16.4810   -8.9410   17.3750 C   0  0  0  0  0  0  0  0  0  0  0  0
   16.6100  -10.7960   15.8160 C   0  0  0  0  0  0  0  0  0  0  0  0
   15.5800   -9.6680   18.1790 C   0  0  0  0  0  0  0  0  0  0  0  0
   15.7790  -11.5590   16.6410 C   0  0  0  0  0  0  0  0  0  0  0  0
   15.2600  -10.9560   17.7850 C   0  0  0  0  0  0  0  0  0  0  0  0
   18.2860   -9.2360   14.1920 O   0  0  0  0  0  0  0  0  0  0  0  0
   17.0350   -7.7580   17.6950 O   0  0  0  0  0  0  0  0  0  0  0  0
   16.6510   -7.0060   18.8850 C   0  0  0  0  0  0  0  0  0  0  0  0
   15.5520   -5.9540   18.4880 C   0  0  0  0  0  0  0  0  0  0  0  0
   14.9950   -5.4180   19.4660 O   0  0  0  0  0  0  0  0  0  0  0  0
   15.3190   -5.7730   17.2850 O   0  5  0  0  0  0  0  0  0  0  0  0
   15.4140   -3.6590    9.7650 Br  0  0  0  0  0  0  0  0  0  0  0  0
   15.7180   -6.9690   13.7270 F   0  0  0  0  0  0  0  0  0  0  0  0
   19.6520   -4.6390   12.5900 F   0  0  0  0  0  0  0  0  0  0  0  0
   17.6300   -6.5420   19.1330 H   0  0  0  0  0  0  0  0  0  0  0  0
   18.2470   -3.5790   10.6890 H   0  0  0  0  0  0  0  0  0  0  0  0
   14.6440   -5.7410   11.7290 H   0  0  0  0  0  0  0  0  0  0  0  0
   18.9990   -5.6070   14.9870 H   0  0  0  0  0  0  0  0  0  0  0  0
   17.3090   -6.8120   16.0740 H   0  0  0  0  0  0  0  0  0  0  0  0
   16.9940  -11.2550   14.8950 H   0  0  0  0  0  0  0  0  0  0  0  0
   15.1720   -9.2590   19.1010 H   0  0  0  0  0  0  0  0  0  0  0  0
   15.5400  -12.5920   16.3840 H   0  0  0  0  0  0  0  0  0  0  0  0
   16.3240   -7.6820   19.6900 H   0  0  0  0  0  0  0  0  0  0  0  0
   19.4180   -7.0640   13.9540 H   0  0  0  0  0  0  0  0  0  0  0  0
  1 16  1  0  0  0  0
  2  3  2  0  0  0  0
  2  4  1  0  0  0  0
  2  8  1  0  0  0  0
  3  5  1  0  0  0  0
  3 25  1  0  0  0  0
  4  6  2  0  0  0  0
  4 24  1  0  0  0  0
  5  7  2  0  0  0  0
  5 27  1  0  0  0  0
  6  7  1  0  0  0  0
  6 28  1  0  0  0  0
  7 23  1  0  0  0  0
  8  9  1  0  0  0  0
  8 29  1  0  0  0  0
  8 35  1  0  0  0  0
  9 10  1  0  0  0  0
  9 30  1  0  0  0  0
 10 11  1  0  0  0  0
 10 17  2  0  0  0  0
 11 12  2  0  0  0  0
 11 13  1  0  0  0  0
 12 14  1  0  0  0  0
 12 18  1  0  0  0  0
 13 15  2  0  0  0  0
 13 31  1  0  0  0  0
 14 16  2  0  0  0  0
 14 32  1  0  0  0  0
 15 16  1  0  0  0  0
 15 33  1  0  0  0  0
 18 19  1  0  0  0  0
 19 20  1  0  0  0  0
 19 26  1  0  0  0  0
 19 34  1  0  0  0  0
 20 21  2  0  0  0  0
 20 22  1  0  0  0  0
M  CHG  1  22  -1
M  END
>  <deltaG_kcalmol>
-9.64

>  <charge>
-1

>  <lm5_entropy_jk>
25.63780735381752

>  <number_of_rotatable_bonds>
7

$$$$
