3QU0
 OpenBabel11252210453D

 38 40  0  0  0  0  0  0  0  0999 V2000
   65.8770  154.4020  -50.5810 N   0  0  0  0  0  0  0  0  0  0  0  0
   64.6070  154.9120  -48.7310 N   0  0  0  0  0  0  0  0  0  0  0  0
   71.0140  150.0910  -47.9770 N   0  0  0  0  0  0  0  0  0  0  0  0
   67.2160  153.5010  -52.2220 N   0  0  0  0  0  0  0  0  0  0  0  0
   61.9910  153.6290  -42.9190 N   0  0  0  0  0  0  0  0  0  0  0  0
   67.5170  152.8710  -49.9540 C   0  0  0  0  0  0  0  0  0  0  0  0
   66.9150  153.5860  -50.9360 C   0  0  0  0  0  0  0  0  0  0  0  0
   65.6580  154.2620  -49.2910 C   0  0  0  0  0  0  0  0  0  0  0  0
   63.9080  154.7810  -47.5560 C   0  0  0  0  0  0  0  0  0  0  0  0
   68.6290  151.9510  -50.1960 C   0  0  0  0  0  0  0  0  0  0  0  0
   69.1040  151.0860  -49.0770 C   0  0  0  0  0  0  0  0  0  0  0  0
   68.2260  150.3740  -48.2370 C   0  0  0  0  0  0  0  0  0  0  0  0
   68.7790  149.5360  -47.2580 C   0  0  0  0  0  0  0  0  0  0  0  0
   70.1740  149.4260  -47.1550 C   0  0  0  0  0  0  0  0  0  0  0  0
   70.4860  150.8980  -48.9220 C   0  0  0  0  0  0  0  0  0  0  0  0
   63.8340  153.5680  -46.8700 C   0  0  0  0  0  0  0  0  0  0  0  0
   63.0260  153.4330  -45.7380 C   0  0  0  0  0  0  0  0  0  0  0  0
   62.2990  154.5500  -45.2990 C   0  0  0  0  0  0  0  0  0  0  0  0
   62.3650  155.7810  -45.9630 C   0  0  0  0  0  0  0  0  0  0  0  0
   63.1680  155.8680  -47.1010 C   0  0  0  0  0  0  0  0  0  0  0  0
   69.1690  151.8810  -51.2850 O   0  0  0  0  0  0  0  0  0  0  0  0
   60.2180  153.2940  -44.2770 O   0  0  0  0  0  0  0  0  0  0  0  0
   60.8230  155.5730  -43.2690 O   0  0  0  0  0  0  0  0  0  0  0  0
   66.7700  153.2140  -48.4260 S   0  0  0  0  0  0  0  0  0  0  0  0
   61.1640  154.3590  -43.9960 S   0  0  0  0  0  0  0  0  0  0  0  0
   64.1130  155.4890  -49.4030 H   0  0  0  0  0  0  0  0  0  0  0  0
   66.9260  154.2460  -52.8430 H   0  0  0  0  0  0  0  0  0  0  0  0
   68.0720  152.9920  -52.4020 H   0  0  0  0  0  0  0  0  0  0  0  0
   61.2440  152.9490  -43.0620 H   0  0  0  0  0  0  0  0  0  0  0  0
   61.5580  154.3790  -42.3810 H   0  0  0  0  0  0  0  0  0  0  0  0
   67.1450  150.4510  -48.3510 H   0  0  0  0  0  0  0  0  0  0  0  0
   68.1350  148.9670  -46.5870 H   0  0  0  0  0  0  0  0  0  0  0  0
   70.6260  148.7770  -46.3990 H   0  0  0  0  0  0  0  0  0  0  0  0
   71.1860  151.4100  -49.5890 H   0  0  0  0  0  0  0  0  0  0  0  0
   64.3650  152.6990  -47.2380 H   0  0  0  0  0  0  0  0  0  0  0  0
   62.9640  152.4620  -45.2330 H   0  0  0  0  0  0  0  0  0  0  0  0
   61.7780  156.6540  -45.6510 H   0  0  0  0  0  0  0  0  0  0  0  0
   63.1880  156.7950  -47.6600 H   0  0  0  0  0  0  0  0  0  0  0  0
  1  8  2  0  0  0  0
  2  9  1  0  0  0  0
  2 26  1  0  0  0  0
  3 14  2  0  0  0  0
  4  7  1  0  0  0  0
  4 27  1  0  0  0  0
  4 28  1  0  0  0  0
  5 29  1  0  0  0  0
  5 30  1  0  0  0  0
  6 24  1  0  0  0  0
  7  1  1  0  0  0  0
  7  6  2  0  0  0  0
  8  2  1  0  0  0  0
  8 24  1  0  0  0  0
  9 20  2  0  0  0  0
  9 16  1  0  0  0  0
 10  6  1  0  0  0  0
 10 11  1  0  0  0  0
 11 15  2  0  0  0  0
 11 12  1  0  0  0  0
 12 13  2  0  0  0  0
 12 31  1  0  0  0  0
 13 14  1  0  0  0  0
 13 32  1  0  0  0  0
 14 33  1  0  0  0  0
 15  3  1  0  0  0  0
 15 34  1  0  0  0  0
 16 17  2  0  0  0  0
 16 35  1  0  0  0  0
 17 18  1  0  0  0  0
 17 36  1  0  0  0  0
 18 25  1  0  0  0  0
 19 18  2  0  0  0  0
 19 37  1  0  0  0  0
 20 19  1  0  0  0  0
 20 38  1  0  0  0  0
 21 10  2  0  0  0  0
 22 25  2  0  0  0  0
 25 23  2  0  0  0  0
 25  5  1  0  0  0  0
M  END
>  <lm5_entropy_jk>
22.397995528352578

>  <number_of_rotatable_bonds>
5

>  <IC50_NM>
20

>  <charge>
0

$$$$
