4K77
 OpenBabel11252210453D

 34 36  0  0  0  0  0  0  0  0999 V2000
  -17.4250   27.4990   -1.3610 C   0  0  0  0  0  0  0  0  0  0  0  0
  -17.9540   26.2460   -1.3590 C   0  0  0  0  0  0  0  0  0  0  0  0
  -17.2750   25.1670   -0.7690 N   0  0  0  0  0  0  0  0  0  0  0  0
  -16.0020   25.3060   -0.1480 C   0  0  0  0  0  0  0  0  0  0  0  0
  -15.4490   24.3270    0.3020 O   0  0  0  0  0  0  0  0  0  0  0  0
  -15.4580   26.7020   -0.1320 C   0  0  0  0  0  0  0  0  0  0  0  0
  -16.1570   27.7630   -0.7310 C   0  0  0  0  0  0  0  0  0  0  0  0
  -15.5270   29.0690   -0.6540 C   0  0  0  0  0  0  0  0  0  0  0  0
  -14.3160   29.2080   -0.0220 N   0  0  0  0  0  0  0  0  0  0  0  0
  -13.7390   28.1010    0.5450 C   0  0  0  0  0  0  0  0  0  0  0  0
  -14.2520   26.8500    0.5070 N   0  0  0  0  0  0  0  0  0  0  0  0
  -16.1450   30.2080   -1.1430 N   0  0  0  0  0  0  0  0  0  0  0  0
  -15.4660   31.5420   -1.1290 C   0  0  0  0  0  0  0  0  0  0  0  0
  -14.4380   31.6490   -2.2770 C   0  0  0  0  0  0  0  0  0  0  0  0
  -13.7690   33.0260   -2.2270 C   0  0  0  0  0  0  0  0  0  0  0  0
  -14.8110   34.1460   -2.3730 C   0  0  0  0  0  0  0  0  0  0  0  0
  -15.8940   34.0410   -1.2900 C   0  0  0  0  0  0  0  0  0  0  0  0
  -16.5380   32.6450   -1.2520 C   0  0  0  0  0  0  0  0  0  0  0  0
  -17.9730   28.3000   -1.8610 H   0  0  0  0  0  0  0  0  0  0  0  0
  -18.9200   26.0250   -1.8330 H   0  0  0  0  0  0  0  0  0  0  0  0
  -17.7720   24.2500   -0.7200 H   0  0  0  0  0  0  0  0  0  0  0  0
  -12.7730   28.2590    1.0660 H   0  0  0  0  0  0  0  0  0  0  0  0
  -16.8860   30.0870   -1.8440 H   0  0  0  0  0  0  0  0  0  0  0  0
  -14.9510   31.6480   -0.1350 H   0  0  0  0  0  0  0  0  0  0  0  0
  -14.9670   31.5260   -3.2530 H   0  0  0  0  0  0  0  0  0  0  0  0
  -13.6760   30.8450   -2.1770 H   0  0  0  0  0  0  0  0  0  0  0  0
  -13.2470   33.1490   -1.2530 H   0  0  0  0  0  0  0  0  0  0  0  0
  -13.0280   33.1000   -3.0510 H   0  0  0  0  0  0  0  0  0  0  0  0
  -14.3190   35.1410   -2.2920 H   0  0  0  0  0  0  0  0  0  0  0  0
  -15.2960   34.0710   -3.3760 H   0  0  0  0  0  0  0  0  0  0  0  0
  -15.4540   34.2710   -0.2950 H   0  0  0  0  0  0  0  0  0  0  0  0
  -16.6980   34.7930   -1.5010 H   0  0  0  0  0  0  0  0  0  0  0  0
  -17.1480   32.4950   -2.1770 H   0  0  0  0  0  0  0  0  0  0  0  0
  -17.2220   32.6030   -0.3760 H   0  0  0  0  0  0  0  0  0  0  0  0
  1  2  2  0  0  0  0
  1  7  1  0  0  0  0
  2  3  1  0  0  0  0
  4  6  1  0  0  0  0
  4  3  1  0  0  0  0
  4  5  2  0  0  0  0
  6  7  1  0  0  0  0
  6 11  2  0  0  0  0
  7  8  2  0  0  0  0
  8  9  1  0  0  0  0
  8 12  1  0  0  0  0
 10  9  2  0  0  0  0
 10 11  1  0  0  0  0
 13 14  1  0  0  0  0
 13 18  1  0  0  0  0
 13 12  1  0  0  0  0
 14 15  1  0  0  0  0
 15 16  1  0  0  0  0
 16 17  1  0  0  0  0
 17 18  1  0  0  0  0
 19  1  1  0  0  0  0
 20  2  1  0  0  0  0
 21  3  1  0  0  0  0
 22 10  1  0  0  0  0
 23 12  1  0  0  0  0
 24 13  1  0  0  0  0
 25 14  1  0  0  0  0
 26 14  1  0  0  0  0
 27 15  1  0  0  0  0
 28 15  1  0  0  0  0
 29 16  1  0  0  0  0
 30 16  1  0  0  0  0
 31 17  1  0  0  0  0
 32 17  1  0  0  0  0
 33 18  1  0  0  0  0
 34 18  1  0  0  0  0
M  END
>  <charge>
0

>  <pKi>
6.63

>  <number_of_rotatable_bonds>
2

>  <lm5_entropy_jk>
17.80530520339831

$$$$
