1K1N
 OpenBabel11252210453D

 81 83  0  0  1  0  0  0  0  0999 V2000
    3.3410   20.9480   15.1210 C   0  0  0  0  0  0  0  0  0  0  0  0
    1.7910   22.8430   15.8380 C   0  0  0  0  0  0  0  0  0  0  0  0
    4.9990   24.5200   17.8640 O   0  0  0  0  0  0  0  0  0  0  0  0
    1.5720   23.9360   16.6690 C   0  0  0  0  0  0  0  0  0  0  0  0
    2.6600   24.5520   17.3230 C   0  0  0  0  0  0  0  0  0  0  0  0
    3.9240   23.9650   17.1890 C   0  0  0  0  0  0  0  0  0  0  0  0
    4.0870   22.8200   16.4290 C   0  0  0  0  0  0  0  0  0  0  0  0
    3.0310   22.2530   15.7620 C   0  0  0  0  0  0  0  0  0  0  0  0
    0.1990   24.4670   16.9640 C   0  0  0  0  0  0  0  0  0  0  0  0
    2.4980   25.8450   18.1840 C   0  0  0  0  0  0  0  0  0  0  0  0
    6.3140   23.9170   17.9500 C   0  0  0  0  0  0  0  0  0  0  0  0
    0.5930   22.3130   14.7140 S   0  0  0  0  0  0  0  0  0  0  0  0
   -0.6680   23.0580   14.7210 O   0  0  0  0  0  0  0  0  0  0  0  0
    1.2280   22.0220   13.4260 O   0  0  0  0  0  0  0  0  0  0  0  0
    0.2330   20.8240   15.2990 N   0  0  0  0  0  0  0  0  0  0  0  0
   -0.5180   20.5680   16.5640 C   0  0  1  0  0  0  0  0  0  0  0  0
   -2.0440   20.6050   16.2470 C   0  0  0  0  0  0  0  0  0  0  0  0
   -2.9380   20.7400   17.4340 C   0  0  0  0  0  0  0  0  0  0  0  0
   -4.0980   20.4320   17.2790 O   0  0  0  0  0  0  0  0  0  0  0  0
   -2.4560   21.1200   18.4800 O   0  5  0  0  0  0  0  0  0  0  0  0
   -0.1010   19.2330   17.2940 C   0  0  0  0  0  0  0  0  0  0  0  0
    0.6260   18.3800   16.8180 O   0  0  0  0  0  0  0  0  0  0  0  0
   -0.5730   19.1230   18.5700 N   0  0  0  0  0  0  0  0  0  0  0  0
   -0.1240   18.1280   19.5690 C   0  0  1  0  0  0  0  0  0  0  0  0
    0.3800   18.8810   20.8360 C   0  0  0  0  0  0  0  0  0  0  0  0
   -0.3460   19.0030   21.8140 O   0  0  0  0  0  0  0  0  0  0  0  0
   -1.2910   17.1450   19.8590 C   0  0  0  0  0  0  0  0  0  0  0  0
   -1.5720   16.2110   18.7110 C   0  0  0  0  0  0  0  0  0  0  0  0
   -2.4200   16.6300   17.6950 C   0  0  0  0  0  0  0  0  0  0  0  0
   -2.6450   15.8180   16.5840 C   0  0  0  0  0  0  0  0  0  0  0  0
   -2.0280   14.5530   16.4480 C   0  0  0  0  0  0  0  0  0  0  0  0
   -1.2310   14.1030   17.5310 C   0  0  0  0  0  0  0  0  0  0  0  0
   -1.0000   14.9360   18.6460 C   0  0  0  0  0  0  0  0  0  0  0  0
   -2.2280   13.7520   15.1930 C   0  0  0  0  0  0  0  0  0  0  0  0
   -2.6940   14.3610   14.0660 N   0  3  0  0  0  0  0  0  0  0  0  0
   -1.7520   12.4790   15.0630 N   0  0  0  0  0  0  0  0  0  0  0  0
    1.6710   19.4460   20.8090 N   0  0  0  0  0  0  0  0  0  0  0  0
    2.1510   20.3440   21.8890 C   0  0  0  0  0  0  0  0  0  0  0  0
    2.1860   21.8110   21.3990 C   0  0  0  0  0  0  0  0  0  0  0  0
    3.0830   21.9440   20.1440 C   0  0  0  0  0  0  0  0  0  0  0  0
    2.6270   20.9330   19.0660 C   0  0  0  0  0  0  0  0  0  0  0  0
    2.5680   19.4930   19.6260 C   0  0  0  0  0  0  0  0  0  0  0  0
    2.2480   18.8100   18.8290 H   0  0  0  0  0  0  0  0  0  0  0  0
    3.3350   21.0060   14.0270 H   0  0  0  0  0  0  0  0  0  0  0  0
    5.0620   22.3630   16.3620 H   0  0  0  0  0  0  0  0  0  0  0  0
   -0.1400   25.1700   16.1940 H   0  0  0  0  0  0  0  0  0  0  0  0
    3.4510   26.3640   18.3530 H   0  0  0  0  0  0  0  0  0  0  0  0
    6.7820   23.8470   16.9590 H   0  0  0  0  0  0  0  0  0  0  0  0
   -0.1820   20.4210   14.4750 H   0  0  0  0  0  0  0  0  0  0  0  0
   -0.2760   21.3360   17.3210 H   0  0  0  0  0  0  0  0  0  0  0  0
   -2.3370   19.6780   15.7480 H   0  0  0  0  0  0  0  0  0  0  0  0
   -1.2060   19.8780   18.8430 H   0  0  0  0  0  0  0  0  0  0  0  0
    0.7260   17.5440   19.1860 H   0  0  0  0  0  0  0  0  0  0  0  0
   -2.1820   17.7260   20.1100 H   0  0  0  0  0  0  0  0  0  0  0  0
   -2.8740   17.6170   17.7490 H   0  0  0  0  0  0  0  0  0  0  0  0
   -3.3110   16.2090   15.8340 H   0  0  0  0  0  0  0  0  0  0  0  0
   -0.7710   13.1210   17.5210 H   0  0  0  0  0  0  0  0  0  0  0  0
   -0.3650   14.6000   19.4660 H   0  0  0  0  0  0  0  0  0  0  0  0
   -3.0700   15.3010   14.1360 H   0  0  0  0  0  0  0  0  0  0  0  0
   -2.1880   11.9050   14.3430 H   0  0  0  0  0  0  0  0  0  0  0  0
    3.1610   20.0400   22.1930 H   0  0  0  0  0  0  0  0  0  0  0  0
    2.5450   22.4740   22.2000 H   0  0  0  0  0  0  0  0  0  0  0  0
    4.1370   21.7680   20.4060 H   0  0  0  0  0  0  0  0  0  0  0  0
    3.2890   20.9780   18.1940 H   0  0  0  0  0  0  0  0  0  0  0  0
    3.5730   19.1660   19.9270 H   0  0  0  0  0  0  0  0  0  0  0  0
    2.6490   20.1650   15.4510 H   0  0  0  0  0  0  0  0  0  0  0  0
    0.1570   25.0000   17.9180 H   0  0  0  0  0  0  0  0  0  0  0  0
    2.0850   25.6250   19.1780 H   0  0  0  0  0  0  0  0  0  0  0  0
    6.2600   22.9110   18.3890 H   0  0  0  0  0  0  0  0  0  0  0  0
   -2.3250   21.4400   15.6050 H   0  0  0  0  0  0  0  0  0  0  0  0
   -1.0540   16.5630   20.7560 H   0  0  0  0  0  0  0  0  0  0  0  0
   -3.1220   13.7450   13.3720 H   0  0  0  0  0  0  0  0  0  0  0  0
   -1.4320   11.9740   15.8850 H   0  0  0  0  0  0  0  0  0  0  0  0
    1.5030   20.2620   22.7720 H   0  0  0  0  0  0  0  0  0  0  0  0
    1.1640   22.1430   21.1630 H   0  0  0  0  0  0  0  0  0  0  0  0
    3.0350   22.9700   19.7460 H   0  0  0  0  0  0  0  0  0  0  0  0
    1.6340   21.2220   18.6980 H   0  0  0  0  0  0  0  0  0  0  0  0
    6.9690   24.5180   18.5950 H   0  0  0  0  0  0  0  0  0  0  0  0
    4.3340   20.5780   15.3900 H   0  0  0  0  0  0  0  0  0  0  0  0
   -0.5510   23.6810   17.0850 H   0  0  0  0  0  0  0  0  0  0  0  0
    1.8410   26.5840   17.7050 H   0  0  0  0  0  0  0  0  0  0  0  0
  1  8  1  0  0  0  0
  1 44  1  0  0  0  0
  1 66  1  0  0  0  0
  1 79  1  0  0  0  0
  2  4  2  0  0  0  0
  2  8  1  0  0  0  0
  2 12  1  0  0  0  0
  3  6  1  0  0  0  0
  3 11  1  0  0  0  0
  4  5  1  0  0  0  0
  4  9  1  0  0  0  0
  5  6  2  0  0  0  0
  5 10  1  0  0  0  0
  6  7  1  0  0  0  0
  7  8  2  0  0  0  0
  7 45  1  0  0  0  0
  9 46  1  0  0  0  0
  9 67  1  0  0  0  0
  9 80  1  0  0  0  0
 10 47  1  0  0  0  0
 10 68  1  0  0  0  0
 10 81  1  0  0  0  0
 11 48  1  0  0  0  0
 11 69  1  0  0  0  0
 11 78  1  0  0  0  0
 12 13  2  0  0  0  0
 12 14  2  0  0  0  0
 12 15  1  0  0  0  0
 15 16  1  0  0  0  0
 15 49  1  0  0  0  0
 16 17  1  0  0  0  0
 16 21  1  0  0  0  0
 16 50  1  1  0  0  0
 17 18  1  0  0  0  0
 17 51  1  0  0  0  0
 17 70  1  0  0  0  0
 18 19  2  0  0  0  0
 18 20  1  0  0  0  0
 21 22  2  0  0  0  0
 21 23  1  0  0  0  0
 23 24  1  0  0  0  0
 23 52  1  0  0  0  0
 24 25  1  0  0  0  0
 24 27  1  0  0  0  0
 24 53  1  6  0  0  0
 25 26  2  0  0  0  0
 25 37  1  0  0  0  0
 27 28  1  0  0  0  0
 27 54  1  0  0  0  0
 27 71  1  0  0  0  0
 28 29  2  0  0  0  0
 28 33  1  0  0  0  0
 29 30  1  0  0  0  0
 29 55  1  0  0  0  0
 30 31  2  0  0  0  0
 30 56  1  0  0  0  0
 31 32  1  0  0  0  0
 31 34  1  0  0  0  0
 32 33  2  0  0  0  0
 32 57  1  0  0  0  0
 33 58  1  0  0  0  0
 34 35  2  0  0  0  0
 34 36  1  0  0  0  0
 35 59  1  0  0  0  0
 35 72  1  0  0  0  0
 36 60  1  0  0  0  0
 36 73  1  0  0  0  0
 37 38  1  0  0  0  0
 37 42  1  0  0  0  0
 38 39  1  0  0  0  0
 38 61  1  0  0  0  0
 38 74  1  0  0  0  0
 39 40  1  0  0  0  0
 39 62  1  0  0  0  0
 39 75  1  0  0  0  0
 40 41  1  0  0  0  0
 40 63  1  0  0  0  0
 40 76  1  0  0  0  0
 41 42  1  0  0  0  0
 41 64  1  0  0  0  0
 41 77  1  0  0  0  0
 42 43  1  0  0  0  0
 42 65  1  0  0  0  0
M  CHG  2  20  -1  35   1
M  END
>  <deltaG_kcalmol>
-9.31

>  <charge>
0

>  <lm5_entropy_jk>
45.06683044899119

>  <number_of_rotatable_bonds>
14

$$$$
