1K1N
 OpenBabel11252210453D

 81 83  0  0  1  0  0  0  0  0999 V2000
    3.0690   20.7110   14.9780 C   0  0  0  0  0  0  0  0  0  0  0  0
    1.5740   22.5910   15.7830 C   0  0  0  0  0  0  0  0  0  0  0  0
    4.8770   24.2590   17.6690 O   0  0  0  0  0  0  0  0  0  0  0  0
    1.3920   23.6830   16.6230 C   0  0  0  0  0  0  0  0  0  0  0  0
    2.5040   24.2740   17.2610 C   0  0  0  0  0  0  0  0  0  0  0  0
    3.7650   23.6950   17.0590 C   0  0  0  0  0  0  0  0  0  0  0  0
    3.8910   22.5560   16.2800 C   0  0  0  0  0  0  0  0  0  0  0  0
    2.8030   21.9990   15.6590 C   0  0  0  0  0  0  0  0  0  0  0  0
    0.0380   24.2560   16.9340 C   0  0  0  0  0  0  0  0  0  0  0  0
    2.3700   25.5530   18.1450 C   0  0  0  0  0  0  0  0  0  0  0  0
    6.2250   23.7240   17.5980 C   0  0  0  0  0  0  0  0  0  0  0  0
    0.4360   22.2160   14.5520 S   0  0  0  0  0  0  0  0  0  0  0  0
   -0.7760   23.0260   14.5520 O   0  0  0  0  0  0  0  0  0  0  0  0
    1.0750   21.8760   13.2790 O   0  0  0  0  0  0  0  0  0  0  0  0
   -0.2470   20.8260   15.0450 N   0  0  0  0  0  0  0  0  0  0  0  0
   -0.5980   20.5710   16.4860 C   0  0  1  0  0  0  0  0  0  0  0  0
   -2.1590   20.5420   16.4930 C   0  0  0  0  0  0  0  0  0  0  0  0
   -2.8200   20.6260   17.8270 C   0  0  0  0  0  0  0  0  0  0  0  0
   -3.9560   20.2180   17.8980 O   0  0  0  0  0  0  0  0  0  0  0  0
   -2.1820   21.0700   18.7560 O   0  5  0  0  0  0  0  0  0  0  0  0
    0.0500   19.2850   17.1620 C   0  0  0  0  0  0  0  0  0  0  0  0
    0.7850   18.4960   16.5910 O   0  0  0  0  0  0  0  0  0  0  0  0
   -0.2720   19.1410   18.4930 N   0  0  0  0  0  0  0  0  0  0  0  0
    0.1340   18.0490   19.4210 C   0  0  1  0  0  0  0  0  0  0  0  0
    0.5540   18.6500   20.8150 C   0  0  0  0  0  0  0  0  0  0  0  0
   -0.1430   18.4900   21.8170 O   0  0  0  0  0  0  0  0  0  0  0  0
   -1.0310   17.0220   19.5460 C   0  0  0  0  0  0  0  0  0  0  0  0
   -1.2600   16.2000   18.3060 C   0  0  0  0  0  0  0  0  0  0  0  0
   -2.2710   16.5530   17.4140 C   0  0  0  0  0  0  0  0  0  0  0  0
   -2.5060   15.7820   16.2710 C   0  0  0  0  0  0  0  0  0  0  0  0
   -1.7270   14.6360   16.0060 C   0  0  0  0  0  0  0  0  0  0  0  0
   -0.7180   14.2700   16.9260 C   0  0  0  0  0  0  0  0  0  0  0  0
   -0.4950   15.0520   18.0710 C   0  0  0  0  0  0  0  0  0  0  0  0
   -1.9640   13.8210   14.7910 C   0  0  0  0  0  0  0  0  0  0  0  0
   -2.4900   14.3820   13.6570 N   0  3  0  0  0  0  0  0  0  0  0  0
   -1.7330   12.4780   14.8500 N   0  0  0  0  0  0  0  0  0  0  0  0
    1.7250   19.4350   20.8640 N   0  0  0  0  0  0  0  0  0  0  0  0
    2.0370   20.3060   22.0240 C   0  0  0  0  0  0  0  0  0  0  0  0
    1.9350   21.8010   21.6290 C   0  0  0  0  0  0  0  0  0  0  0  0
    2.8740   22.1140   20.4390 C   0  0  0  0  0  0  0  0  0  0  0  0
    2.5720   21.1440   19.2730 C   0  0  0  0  0  0  0  0  0  0  0  0
    2.6570   19.6710   19.7280 C   0  0  0  0  0  0  0  0  0  0  0  0
    2.4450   19.0160   18.8720 H   0  0  0  0  0  0  0  0  0  0  0  0
    3.2690   20.8540   13.9090 H   0  0  0  0  0  0  0  0  0  0  0  0
    4.8610   22.1010   16.1490 H   0  0  0  0  0  0  0  0  0  0  0  0
   -0.2220   25.0630   16.2390 H   0  0  0  0  0  0  0  0  0  0  0  0
    3.3340   26.0510   18.3220 H   0  0  0  0  0  0  0  0  0  0  0  0
    6.5910   23.7000   16.5610 H   0  0  0  0  0  0  0  0  0  0  0  0
   -1.0080   21.3910   14.6590 H   0  0  0  0  0  0  0  0  0  0  0  0
   -0.2530   21.3840   17.1500 H   0  0  0  0  0  0  0  0  0  0  0  0
   -2.5070   19.6150   16.0270 H   0  0  0  0  0  0  0  0  0  0  0  0
   -0.8940   19.8760   18.8360 H   0  0  0  0  0  0  0  0  0  0  0  0
    1.0220   17.5300   19.0250 H   0  0  0  0  0  0  0  0  0  0  0  0
   -1.9490   17.5540   19.8190 H   0  0  0  0  0  0  0  0  0  0  0  0
   -2.8640   17.4470   17.5950 H   0  0  0  0  0  0  0  0  0  0  0  0
   -3.3020   16.0890   15.6010 H   0  0  0  0  0  0  0  0  0  0  0  0
   -0.0870   13.3980   16.7510 H   0  0  0  0  0  0  0  0  0  0  0  0
    0.2830   14.7730   18.7770 H   0  0  0  0  0  0  0  0  0  0  0  0
   -2.7910   15.3560   13.6900 H   0  0  0  0  0  0  0  0  0  0  0  0
   -2.1940   11.9060   14.1430 H   0  0  0  0  0  0  0  0  0  0  0  0
    3.0600   20.0970   22.3700 H   0  0  0  0  0  0  0  0  0  0  0  0
    2.1810   22.4450   22.4890 H   0  0  0  0  0  0  0  0  0  0  0  0
    3.9280   22.0250   20.7450 H   0  0  0  0  0  0  0  0  0  0  0  0
    3.2680   21.3220   18.4460 H   0  0  0  0  0  0  0  0  0  0  0  0
    3.6840   19.4440   20.0500 H   0  0  0  0  0  0  0  0  0  0  0  0
    2.2510   19.9940   15.1020 H   0  0  0  0  0  0  0  0  0  0  0  0
    0.0040   24.6830   17.9410 H   0  0  0  0  0  0  0  0  0  0  0  0
    1.9540   25.3250   19.1350 H   0  0  0  0  0  0  0  0  0  0  0  0
    6.2690   22.7100   18.0170 H   0  0  0  0  0  0  0  0  0  0  0  0
   -2.5990   21.3710   15.9360 H   0  0  0  0  0  0  0  0  0  0  0  0
   -0.8200   16.3390   20.3780 H   0  0  0  0  0  0  0  0  0  0  0  0
   -2.9980   13.7560   13.0310 H   0  0  0  0  0  0  0  0  0  0  0  0
   -1.7110   12.0630   15.7750 H   0  0  0  0  0  0  0  0  0  0  0  0
    1.3550   20.0920   22.8580 H   0  0  0  0  0  0  0  0  0  0  0  0
    0.8970   22.0440   21.3550 H   0  0  0  0  0  0  0  0  0  0  0  0
    2.7470   23.1570   20.1060 H   0  0  0  0  0  0  0  0  0  0  0  0
    1.5720   21.3520   18.8720 H   0  0  0  0  0  0  0  0  0  0  0  0
    6.9180   24.3470   18.1810 H   0  0  0  0  0  0  0  0  0  0  0  0
    3.9510   20.2140   15.3940 H   0  0  0  0  0  0  0  0  0  0  0  0
   -0.7750   23.5270   16.9400 H   0  0  0  0  0  0  0  0  0  0  0  0
    1.7250   26.3130   17.6810 H   0  0  0  0  0  0  0  0  0  0  0  0
  1  8  1  0  0  0  0
  1 44  1  0  0  0  0
  1 66  1  0  0  0  0
  1 79  1  0  0  0  0
  2  4  2  0  0  0  0
  2  8  1  0  0  0  0
  2 12  1  0  0  0  0
  3  6  1  0  0  0  0
  3 11  1  0  0  0  0
  4  5  1  0  0  0  0
  4  9  1  0  0  0  0
  5  6  2  0  0  0  0
  5 10  1  0  0  0  0
  6  7  1  0  0  0  0
  7  8  2  0  0  0  0
  7 45  1  0  0  0  0
  9 46  1  0  0  0  0
  9 67  1  0  0  0  0
  9 80  1  0  0  0  0
 10 47  1  0  0  0  0
 10 68  1  0  0  0  0
 10 81  1  0  0  0  0
 11 48  1  0  0  0  0
 11 69  1  0  0  0  0
 11 78  1  0  0  0  0
 12 13  2  0  0  0  0
 12 14  2  0  0  0  0
 12 15  1  0  0  0  0
 15 16  1  0  0  0  0
 15 49  1  0  0  0  0
 16 17  1  0  0  0  0
 16 21  1  0  0  0  0
 16 50  1  1  0  0  0
 17 18  1  0  0  0  0
 17 51  1  0  0  0  0
 17 70  1  0  0  0  0
 18 19  2  0  0  0  0
 18 20  1  0  0  0  0
 21 22  2  0  0  0  0
 21 23  1  0  0  0  0
 23 24  1  0  0  0  0
 23 52  1  0  0  0  0
 24 25  1  0  0  0  0
 24 27  1  0  0  0  0
 24 53  1  6  0  0  0
 25 26  2  0  0  0  0
 25 37  1  0  0  0  0
 27 28  1  0  0  0  0
 27 54  1  0  0  0  0
 27 71  1  0  0  0  0
 28 29  2  0  0  0  0
 28 33  1  0  0  0  0
 29 30  1  0  0  0  0
 29 55  1  0  0  0  0
 30 31  2  0  0  0  0
 30 56  1  0  0  0  0
 31 32  1  0  0  0  0
 31 34  1  0  0  0  0
 32 33  2  0  0  0  0
 32 57  1  0  0  0  0
 33 58  1  0  0  0  0
 34 35  2  0  0  0  0
 34 36  1  0  0  0  0
 35 59  1  0  0  0  0
 35 72  1  0  0  0  0
 36 60  1  0  0  0  0
 36 73  1  0  0  0  0
 37 38  1  0  0  0  0
 37 42  1  0  0  0  0
 38 39  1  0  0  0  0
 38 61  1  0  0  0  0
 38 74  1  0  0  0  0
 39 40  1  0  0  0  0
 39 62  1  0  0  0  0
 39 75  1  0  0  0  0
 40 41  1  0  0  0  0
 40 63  1  0  0  0  0
 40 76  1  0  0  0  0
 41 42  1  0  0  0  0
 41 64  1  0  0  0  0
 41 77  1  0  0  0  0
 42 43  1  0  0  0  0
 42 65  1  0  0  0  0
M  CHG  2  20  -1  35   1
M  END
>  <deltaG_kcalmol>
-9.31

>  <charge>
0

>  <lm5_entropy_jk>
45.06683044899119

>  <number_of_rotatable_bonds>
14

$$$$
