3R8V
 OpenBabel11252210453D

 33 34  0  0  1  0  0  0  0  0999 V2000
   65.7390  154.5550  -50.3370 N   0  0  0  0  0  0  0  0  0  0  0  0
   67.3820  153.4630  -51.6910 N   0  0  0  0  0  0  0  0  0  0  0  0
   64.3290  155.3840  -48.5910 N   0  0  0  0  0  0  0  0  0  0  0  0
   67.8320  150.8020  -44.1960 N   0  3  0  0  0  0  0  0  0  0  0  0
   66.8210  153.6380  -50.4590 C   0  0  0  0  0  0  0  0  0  0  0  0
   67.1750  152.9190  -49.2940 C   0  0  0  0  0  0  0  0  0  0  0  0
   68.3190  152.0920  -49.0650 C   0  0  0  0  0  0  0  0  0  0  0  0
   68.2330  151.0870  -47.9380 C   0  0  0  0  0  0  0  0  0  0  0  0
   68.0610  151.4410  -46.5980 C   0  0  0  0  0  0  0  0  0  0  0  0
   67.9750  150.4320  -45.6250 C   0  0  0  0  0  0  0  0  0  0  0  0
   68.0290  149.0760  -45.9710 C   0  0  0  0  0  0  0  0  0  0  0  0
   68.2220  148.7400  -47.3120 C   0  0  0  0  0  0  0  0  0  0  0  0
   68.3460  149.7320  -48.2860 C   0  0  0  0  0  0  0  0  0  0  0  0
   65.2380  154.4830  -49.0820 C   0  0  0  0  0  0  0  0  0  0  0  0
   63.7610  155.2560  -47.2260 C   0  0  0  0  0  0  0  0  0  0  0  0
   62.7710  154.1310  -47.0710 C   0  0  0  0  0  0  0  0  0  0  0  0
   62.5000  153.6060  -45.8800 C   0  0  0  0  0  0  0  0  0  0  0  0
   69.3260  152.1200  -49.7590 O   0  0  0  0  0  0  0  0  0  0  0  0
   68.5400  151.6980  -43.7660 O   0  5  0  0  0  0  0  0  0  0  0  0
   67.0170  150.1910  -43.5200 O   0  0  0  0  0  0  0  0  0  0  0  0
   65.9840  153.1520  -48.0570 S   0  0  0  0  0  0  0  0  0  0  0  0
   67.1110  154.0840  -52.4840 H   0  0  0  0  0  0  0  0  0  0  0  0
   68.2450  152.9250  -51.7830 H   0  0  0  0  0  0  0  0  0  0  0  0
   68.0080  152.4850  -46.2920 H   0  0  0  0  0  0  0  0  0  0  0  0
   67.9350  148.2860  -45.2180 H   0  0  0  0  0  0  0  0  0  0  0  0
   68.2760  147.6900  -47.5940 H   0  0  0  0  0  0  0  0  0  0  0  0
   68.5450  149.4420  -49.3200 H   0  0  0  0  0  0  0  0  0  0  0  0
   63.6440  155.7900  -49.2690 H   0  0  0  0  0  0  0  0  0  0  0  0
   63.2200  156.2280  -47.0220 H   0  0  0  0  0  0  0  0  0  0  0  0
   64.6000  155.1550  -46.4910 H   0  0  0  0  0  0  0  0  0  0  0  0
   61.7740  152.8120  -45.7390 H   0  0  0  0  0  0  0  0  0  0  0  0
   62.9890  153.9390  -44.9620 H   0  0  0  0  0  0  0  0  0  0  0  0
   62.2810  153.8110  -47.9920 H   0  0  0  0  0  0  0  0  0  0  0  0
  1  5  1  0  0  0  0
  1 14  2  0  0  0  0
  2  5  1  0  0  0  0
  2 22  1  0  0  0  0
  2 23  1  0  0  0  0
  3 14  1  0  0  0  0
  3 15  1  0  0  0  0
  3 28  1  0  0  0  0
  4 10  1  0  0  0  0
  4 19  1  0  0  0  0
  4 20  2  0  0  0  0
  5  6  2  0  0  0  0
  6 21  1  0  0  0  0
  7  6  1  0  0  0  0
  7  8  1  0  0  0  0
  7 18  2  0  0  0  0
  8  9  2  0  0  0  0
  8 13  1  0  0  0  0
  9 10  1  0  0  0  0
  9 24  1  0  0  0  0
 10 11  2  0  0  0  0
 11 12  1  0  0  0  0
 11 25  1  0  0  0  0
 12 13  2  0  0  0  0
 12 26  1  0  0  0  0
 13 27  1  0  0  0  0
 14 21  1  0  0  0  0
 15 16  1  0  0  0  0
 15 29  1  0  0  0  0
 15 30  1  0  0  0  0
 16 17  2  0  0  0  0
 16 33  1  0  0  0  0
 17 31  1  0  0  0  0
 17 32  1  0  0  0  0
M  CHG  2   4   1  19  -1
M  END
>  <lm5_entropy_jk>
33.50945403317048

>  <number_of_rotatable_bonds>
6

>  <IC50_NM>
2900

>  <charge>
0

$$$$
