JAK1_6.pdb
 OpenBabel11252210453D

 46 50  0  0  1  0  0  0  0  0999 V2000
   -9.1730   30.2780    3.6110 C   0  0  0  0  0  0  0  0  0  0  0  0
  -10.0140   28.8740    3.0470 S   0  0  0  0  0  0  0  0  0  0  0  0
  -10.3140   29.2240    1.4040 N   0  0  0  0  0  0  0  0  0  0  0  0
  -11.6390   29.6110    0.9000 C   0  0  0  0  0  0  0  0  0  0  0  0
  -12.6230   28.4870    0.6870 C   0  0  0  0  0  0  0  0  0  0  0  0
  -13.9070   28.7060    0.0610 N   0  0  0  0  0  0  0  0  0  0  0  0
  -14.2880   30.0410   -0.4570 C   0  0  1  0  0  0  0  0  0  0  0  0
  -13.8890   30.2670   -1.9630 C   0  0  1  0  0  0  0  0  0  0  0  0
  -15.1700   29.8260   -2.7150 C   0  0  0  0  0  0  0  0  0  0  0  0
  -16.1020   30.7790   -1.9070 C   0  0  1  0  0  0  0  0  0  0  0  0
  -15.8010   30.3780   -0.4320 C   0  0  0  0  0  0  0  0  0  0  0  0
  -13.9140   31.8110   -2.1890 C   0  0  0  0  0  0  0  0  0  0  0  0
  -15.4290   32.1600   -2.1650 C   0  0  0  0  0  0  0  0  0  0  0  0
  -14.5610   27.4610    0.0490 C   0  0  0  0  0  0  0  0  0  0  0  0
  -15.7890   26.9200   -0.4130 C   0  0  0  0  0  0  0  0  0  0  0  0
  -16.9630   27.3450   -1.1140 C   0  0  0  0  0  0  0  0  0  0  0  0
  -17.7980   26.2470   -1.2780 C   0  0  0  0  0  0  0  0  0  0  0  0
  -17.1930   25.1110   -0.7160 N   0  0  0  0  0  0  0  0  0  0  0  0
  -15.9690   25.5050   -0.1660 C   0  0  0  0  0  0  0  0  0  0  0  0
  -15.0910   24.6400    0.4710 N   0  0  0  0  0  0  0  0  0  0  0  0
  -13.9450   25.1690    0.8890 C   0  0  0  0  0  0  0  0  0  0  0  0
  -13.6400   26.5500    0.6910 C   0  0  0  0  0  0  0  0  0  0  0  0
  -12.4660   27.2140    1.0620 N   0  0  0  0  0  0  0  0  0  0  0  0
   -9.1050   27.7210    3.1300 O   0  0  0  0  0  0  0  0  0  0  0  0
  -11.2680   28.6880    3.7350 O   0  0  0  0  0  0  0  0  0  0  0  0
  -11.4770   30.1470   -0.0800 H   0  0  0  0  0  0  0  0  0  0  0  0
  -12.0840   30.3450    1.6310 H   0  0  0  0  0  0  0  0  0  0  0  0
  -13.7610   30.7930    0.1880 H   0  0  0  0  0  0  0  0  0  0  0  0
  -12.9600   29.7830   -2.2720 H   0  0  0  0  0  0  0  0  0  0  0  0
  -15.4200   28.7580   -2.5920 H   0  0  0  0  0  0  0  0  0  0  0  0
  -15.1490   30.0730   -3.7910 H   0  0  0  0  0  0  0  0  0  0  0  0
  -17.1670   30.7460   -2.1740 H   0  0  0  0  0  0  0  0  0  0  0  0
  -16.4180   29.5220   -0.1050 H   0  0  0  0  0  0  0  0  0  0  0  0
  -15.9930   31.2390    0.2400 H   0  0  0  0  0  0  0  0  0  0  0  0
  -13.4860   32.0670   -3.1790 H   0  0  0  0  0  0  0  0  0  0  0  0
  -13.3620   32.3560   -1.4030 H   0  0  0  0  0  0  0  0  0  0  0  0
  -15.7540   32.5720   -3.1420 H   0  0  0  0  0  0  0  0  0  0  0  0
  -15.6780   32.8930   -1.3730 H   0  0  0  0  0  0  0  0  0  0  0  0
  -17.1960   28.3200   -1.5010 H   0  0  0  0  0  0  0  0  0  0  0  0
  -18.7550   26.1950   -1.7730 H   0  0  0  0  0  0  0  0  0  0  0  0
  -13.2280   24.5130    1.4080 H   0  0  0  0  0  0  0  0  0  0  0  0
  -17.6560   24.2020   -0.6150 H   0  0  0  0  0  0  0  0  0  0  0  0
   -9.6640   28.8950    0.6600 H   0  0  0  0  0  0  0  0  0  0  0  0
   -8.9950   30.2660    4.7210 H   0  0  0  0  0  0  0  0  0  0  0  0
   -9.7390   31.2330    3.4130 H   0  0  0  0  0  0  0  0  0  0  0  0
   -8.1680   30.4380    3.1440 H   0  0  0  0  0  0  0  0  0  0  0  0
  1  2  1  0  0  0  0
  3  2  1  0  0  0  0
  4  5  1  0  0  0  0
  4  3  1  0  0  0  0
  5 23  2  0  0  0  0
  5  6  1  0  0  0  0
  7  8  1  0  0  0  0
  7  6  1  0  0  0  0
  7 28  1  1  0  0  0
  8 29  1  6  0  0  0
  9 10  1  0  0  0  0
  9  8  1  0  0  0  0
 10 11  1  0  0  0  0
 10 13  1  0  0  0  0
 10 32  1  6  0  0  0
 11  7  1  0  0  0  0
 12 13  1  0  0  0  0
 12  8  1  0  0  0  0
 14 15  2  0  0  0  0
 14 22  1  0  0  0  0
 14  6  1  0  0  0  0
 15 16  1  0  0  0  0
 15 19  1  0  0  0  0
 16 17  2  0  0  0  0
 17 18  1  0  0  0  0
 19 18  1  0  0  0  0
 19 20  2  0  0  0  0
 21 22  2  0  0  0  0
 21 20  1  0  0  0  0
 22 23  1  0  0  0  0
 24  2  2  0  0  0  0
 25  2  2  0  0  0  0
 26  4  1  0  0  0  0
 27  4  1  0  0  0  0
 30  9  1  0  0  0  0
 31  9  1  0  0  0  0
 33 11  1  0  0  0  0
 34 11  1  0  0  0  0
 35 12  1  0  0  0  0
 36 12  1  0  0  0  0
 37 13  1  0  0  0  0
 38 13  1  0  0  0  0
 39 16  1  0  0  0  0
 40 17  1  0  0  0  0
 41 21  1  0  0  0  0
 42 18  1  0  0  0  0
 43  3  1  0  0  0  0
 44  1  1  0  0  0  0
 45  1  1  0  0  0  0
 46  1  1  0  0  0  0
M  END
>  <charge>
0

>  <pKi>
9.7

>  <number_of_rotatable_bonds>
4

>  <lm5_entropy_jk>
31.79286729643965

$$$$
