39-31.pdb
 OpenBabel11252210453D

 78 79  0  0  1  0  0  0  0  0999 V2000
   11.2450   17.8200    7.5790 C   0  0  2  0  0  0  0  0  0  0  0  0
    8.3550   18.3720    9.0850 N   0  0  0  0  0  0  0  0  0  0  0  0
    7.4230   19.8670   11.1890 O   0  0  0  0  0  0  0  0  0  0  0  0
    9.8590   18.2830    7.0830 C   0  0  0  0  0  0  0  0  0  0  0  0
    4.7910   17.3920    9.5100 N   0  0  0  0  0  0  0  0  0  0  0  0
   12.1710   18.6400    6.8330 O   0  0  0  0  0  0  0  0  0  0  0  0
    8.7110   17.7110    7.8900 C   0  0  0  0  0  0  0  0  0  0  0  0
   11.6540   16.0480    5.8600 N   0  0  0  0  0  0  0  0  0  0  0  0
    5.7490   19.0260    8.1930 O   0  0  0  0  0  0  0  0  0  0  0  0
    7.1800   17.8970    9.8340 C   0  0  1  0  0  0  0  0  0  0  0  0
    8.1320   16.6870    7.5580 O   0  0  0  0  0  0  0  0  0  0  0  0
    7.0280   18.4870   11.2670 C   0  0  1  0  0  0  0  0  0  0  0  0
   10.3270   14.1660    5.8830 O   0  0  0  0  0  0  0  0  0  0  0  0
    7.8600   17.7280   12.2980 C   0  0  0  0  0  0  0  0  0  0  0  0
    5.8670   18.1650    9.0440 C   0  0  0  0  0  0  0  0  0  0  0  0
    3.5090   17.2670    8.7720 C   0  0  0  0  0  0  0  0  0  0  0  0
    3.4660   16.0320    7.8510 C   0  0  0  0  0  0  0  0  0  0  0  0
    4.4200   16.1100    6.6500 C   0  0  0  0  0  0  0  0  0  0  0  0
    3.9090   17.0270    5.5260 C   0  0  0  0  0  0  0  0  0  0  0  0
    5.0300   17.6580    4.6810 C   0  0  0  0  0  0  0  0  0  0  0  0
    6.0440   16.6340    4.1490 C   0  0  0  0  0  0  0  0  0  0  0  0
    6.8500   17.1710    2.9550 C   0  0  0  0  0  0  0  0  0  0  0  0
    7.8830   16.1550    2.4350 C   0  0  0  0  0  0  0  0  0  0  0  0
    9.1640   16.1080    3.2800 C   0  0  0  0  0  0  0  0  0  0  0  0
   10.0090   14.8660    2.9570 C   0  0  0  0  0  0  0  0  0  0  0  0
   11.3170   14.8120    3.7630 C   0  0  0  0  0  0  0  0  0  0  0  0
   11.5790   16.3090    7.3070 C   0  0  1  0  0  0  0  0  0  0  0  0
   11.0440   14.9280    5.2550 C   0  0  0  0  0  0  0  0  0  0  0  0
   12.9010   15.9400    8.0410 C   0  0  0  0  0  0  0  0  0  0  0  0
   13.3150   14.5040    7.8610 C   0  0  0  0  0  0  0  0  0  0  0  0
   12.6570   13.4740    8.5540 C   0  0  0  0  0  0  0  0  0  0  0  0
   13.0170   12.1390    8.3580 C   0  0  0  0  0  0  0  0  0  0  0  0
   14.0650   11.8110    7.4920 C   0  0  0  0  0  0  0  0  0  0  0  0
   14.7570   12.8310    6.8340 C   0  0  0  0  0  0  0  0  0  0  0  0
   14.3860   14.1660    7.0180 C   0  0  0  0  0  0  0  0  0  0  0  0
   14.9520   14.9450    6.5100 H   0  0  0  0  0  0  0  0  0  0  0  0
    8.6850   19.3250    9.3100 H   0  0  0  0  0  0  0  0  0  0  0  0
   11.3620   18.0380    8.6660 H   0  0  0  0  0  0  0  0  0  0  0  0
   12.8000   19.1030    7.4940 H   0  0  0  0  0  0  0  0  0  0  0  0
    9.7320   17.9660    6.0130 H   0  0  0  0  0  0  0  0  0  0  0  0
    5.0160   16.5560   10.0880 H   0  0  0  0  0  0  0  0  0  0  0  0
   12.4510   16.5080    5.3900 H   0  0  0  0  0  0  0  0  0  0  0  0
    7.2970   16.7850    9.9780 H   0  0  0  0  0  0  0  0  0  0  0  0
    5.9510   18.4520   11.5810 H   0  0  0  0  0  0  0  0  0  0  0  0
    7.1700   20.3290   12.0180 H   0  0  0  0  0  0  0  0  0  0  0  0
    7.5080   16.6700   12.3570 H   0  0  0  0  0  0  0  0  0  0  0  0
    3.3240   18.2020    8.1840 H   0  0  0  0  0  0  0  0  0  0  0  0
    2.4140   15.9130    7.4910 H   0  0  0  0  0  0  0  0  0  0  0  0
    4.5380   15.0800    6.2410 H   0  0  0  0  0  0  0  0  0  0  0  0
    3.3090   17.8600    5.9640 H   0  0  0  0  0  0  0  0  0  0  0  0
    5.5700   18.4110    5.2990 H   0  0  0  0  0  0  0  0  0  0  0  0
    5.5040   15.7170    3.8230 H   0  0  0  0  0  0  0  0  0  0  0  0
    7.3660   18.1140    3.2380 H   0  0  0  0  0  0  0  0  0  0  0  0
    8.1530   16.4330    1.3890 H   0  0  0  0  0  0  0  0  0  0  0  0
    8.8890   16.1000    4.3600 H   0  0  0  0  0  0  0  0  0  0  0  0
   10.2780   14.8800    1.8720 H   0  0  0  0  0  0  0  0  0  0  0  0
   11.9930   15.6270    3.4080 H   0  0  0  0  0  0  0  0  0  0  0  0
   10.7480   15.6900    7.7350 H   0  0  0  0  0  0  0  0  0  0  0  0
   12.7610   16.1590    9.1300 H   0  0  0  0  0  0  0  0  0  0  0  0
   11.8820   13.7210    9.2740 H   0  0  0  0  0  0  0  0  0  0  0  0
   12.4860   11.3520    8.8970 H   0  0  0  0  0  0  0  0  0  0  0  0
   14.3540   10.7690    7.3430 H   0  0  0  0  0  0  0  0  0  0  0  0
   15.5960   12.5900    6.1760 H   0  0  0  0  0  0  0  0  0  0  0  0
   13.7100   16.6180    7.6750 H   0  0  0  0  0  0  0  0  0  0  0  0
    9.8500   19.3990    7.1070 H   0  0  0  0  0  0  0  0  0  0  0  0
    7.7460   18.1820   13.3080 H   0  0  0  0  0  0  0  0  0  0  0  0
    2.7050   17.1660    9.5550 H   0  0  0  0  0  0  0  0  0  0  0  0
    3.7170   15.1250    8.4540 H   0  0  0  0  0  0  0  0  0  0  0  0
    5.4200   16.4620    6.9960 H   0  0  0  0  0  0  0  0  0  0  0  0
    3.2350   16.4380    4.8590 H   0  0  0  0  0  0  0  0  0  0  0  0
    4.5530   18.1860    3.8220 H   0  0  0  0  0  0  0  0  0  0  0  0
    6.7470   16.3690    4.9710 H   0  0  0  0  0  0  0  0  0  0  0  0
    6.1450   17.3910    2.1210 H   0  0  0  0  0  0  0  0  0  0  0  0
    7.4140   15.1460    2.4140 H   0  0  0  0  0  0  0  0  0  0  0  0
    9.7690   17.0220    3.0750 H   0  0  0  0  0  0  0  0  0  0  0  0
    9.4230   13.9430    3.1640 H   0  0  0  0  0  0  0  0  0  0  0  0
   11.8270   13.8370    3.5610 H   0  0  0  0  0  0  0  0  0  0  0  0
    8.9300   17.7200   12.0170 H   0  0  0  0  0  0  0  0  0  0  0  0
  1 38  1  1  0  0  0
  1 27  1  0  0  0  0
  2 37  1  0  0  0  0
  2 10  1  0  0  0  0
  3 45  1  0  0  0  0
  4 65  1  0  0  0  0
  4  1  1  0  0  0  0
  4  7  1  0  0  0  0
  5 41  1  0  0  0  0
  6 39  1  0  0  0  0
  6  1  1  0  0  0  0
  7  2  1  0  0  0  0
  8 27  1  0  0  0  0
  9 15  2  0  0  0  0
 10 43  1  1  0  0  0
 10 12  1  0  0  0  0
 11  7  2  0  0  0  0
 12  3  1  0  0  0  0
 12 44  1  1  0  0  0
 12 14  1  0  0  0  0
 14 66  1  0  0  0  0
 15  5  1  0  0  0  0
 15 10  1  0  0  0  0
 16 67  1  0  0  0  0
 16  5  1  0  0  0  0
 17 68  1  0  0  0  0
 17 16  1  0  0  0  0
 18 69  1  0  0  0  0
 18 17  1  0  0  0  0
 19 50  1  0  0  0  0
 19 18  1  0  0  0  0
 20 51  1  0  0  0  0
 20 19  1  0  0  0  0
 21 20  1  0  0  0  0
 21 72  1  0  0  0  0
 22 53  1  0  0  0  0
 22 21  1  0  0  0  0
 23 74  1  0  0  0  0
 23 22  1  0  0  0  0
 23 24  1  0  0  0  0
 24 55  1  0  0  0  0
 25 24  1  0  0  0  0
 25 76  1  0  0  0  0
 25 26  1  0  0  0  0
 26 28  1  0  0  0  0
 27 58  1  1  0  0  0
 27 29  1  0  0  0  0
 28  8  1  0  0  0  0
 28 13  2  0  0  0  0
 29 59  1  0  0  0  0
 30 29  1  0  0  0  0
 30 31  2  0  0  0  0
 31 60  1  0  0  0  0
 32 31  1  0  0  0  0
 32 61  1  0  0  0  0
 33 32  2  0  0  0  0
 34 35  2  0  0  0  0
 34 33  1  0  0  0  0
 35 30  1  0  0  0  0
 36 35  1  0  0  0  0
 40  4  1  0  0  0  0
 42  8  1  0  0  0  0
 46 14  1  0  0  0  0
 47 16  1  0  0  0  0
 48 17  1  0  0  0  0
 49 18  1  0  0  0  0
 52 21  1  0  0  0  0
 54 23  1  0  0  0  0
 56 25  1  0  0  0  0
 57 26  1  0  0  0  0
 62 33  1  0  0  0  0
 63 34  1  0  0  0  0
 64 29  1  0  0  0  0
 70 19  1  0  0  0  0
 71 20  1  0  0  0  0
 73 22  1  0  0  0  0
 75 24  1  0  0  0  0
 77 26  1  0  0  0  0
 78 14  1  0  0  0  0
M  END
>  <IC50_NM>
496

>  <number_of_rotatable_bonds>
3

>  <charge>
0

>  <lm5_entropy_jk>
23.111899726860837

$$$$
