2OXY
 OpenBabel11252210453D

 15 16  0  0  1  0  0  0  0  0999 V2000
   21.2880    8.4000   20.4200 C   0  0  0  0  0  0  0  0  0  0  0  0
   21.5120    8.8660   19.0870 C   0  0  0  0  0  0  0  0  0  0  0  0
   22.4240    8.2350   18.2590 C   0  0  0  0  0  0  0  0  0  0  0  0
   21.9350    7.2770   20.9100 C   0  0  0  0  0  0  0  0  0  0  0  0
   23.5270    5.3950   20.2680 N   0  0  0  0  0  0  0  0  0  0  0  0
   22.8090    6.5770   20.0580 C   0  0  0  0  0  0  0  0  0  0  0  0
   23.0730    7.0850   18.7400 C   0  0  0  0  0  0  0  0  0  0  0  0
   23.9910    6.2080   18.1650 N   0  0  0  0  0  0  0  0  0  0  0  0
   24.2130    5.1780   19.1260 C   0  0  0  0  0  0  0  0  0  0  0  0
   20.0880    9.3330   21.5520 Br  0  0  0  0  0  0  0  0  0  0  0  0
   20.5760   10.3860   18.4370 Br  0  0  0  0  0  0  0  0  0  0  0  0
   22.9280    8.7670   16.5180 Br  0  0  0  0  0  0  0  0  0  0  0  0
   21.7630    6.5850   22.6550 Br  0  0  0  0  0  0  0  0  0  0  0  0
   24.8750    4.3390   18.9040 H   0  0  0  0  0  0  0  0  0  0  0  0
   24.3990    6.2690   17.2360 H   0  0  0  0  0  0  0  0  0  0  0  0
  1  2  2  0  0  0  0
  1  4  1  0  0  0  0
  1 10  1  0  0  0  0
  2  3  1  0  0  0  0
  2 11  1  0  0  0  0
  3  7  2  0  0  0  0
  3 12  1  0  0  0  0
  4  6  2  0  0  0  0
  4 13  1  0  0  0  0
  5  6  1  0  0  0  0
  5  9  2  0  0  0  0
  6  7  1  0  0  0  0
  7  8  1  0  0  0  0
  8  9  1  0  0  0  0
  8 15  1  0  0  0  0
  9 14  1  0  0  0  0
M  END
>  <charge>
0

>  <Ki_NM>
300

>  <number_of_rotatable_bonds>
0

>  <lm5_entropy_jk>
7.2278

$$$$
