3QTS
 OpenBabel11252210453D

 38 40  0  0  1  0  0  0  0  0999 V2000
   65.6920  154.0590  -49.7980 N   0  0  0  0  0  0  0  0  0  0  0  0
   67.5210  153.3960  -51.0380 N   0  0  0  0  0  0  0  0  0  0  0  0
   63.9530  154.4620  -48.3250 N   0  0  0  0  0  0  0  0  0  0  0  0
   68.7840  149.1560  -45.2150 C   0  0  0  0  0  0  0  0  0  0  0  0
   68.3910  150.4920  -45.0770 C   0  0  0  0  0  0  0  0  0  0  0  0
   68.3070  151.3110  -46.2010 C   0  0  0  0  0  0  0  0  0  0  0  0
   68.9630  149.4600  -47.6170 C   0  0  0  0  0  0  0  0  0  0  0  0
   69.0900  148.6400  -46.4830 C   0  0  0  0  0  0  0  0  0  0  0  0
   67.6670  150.2070  -42.7170 C   0  0  0  0  0  0  0  0  0  0  0  0
   68.5360  150.8020  -47.5020 C   0  0  0  0  0  0  0  0  0  0  0  0
   68.3320  151.6430  -48.7630 C   0  0  0  0  0  0  0  0  0  0  0  0
   67.1490  152.5190  -48.8350 C   0  0  0  0  0  0  0  0  0  0  0  0
   66.8370  153.3150  -49.8940 C   0  0  0  0  0  0  0  0  0  0  0  0
   65.0860  153.7830  -48.6600 C   0  0  0  0  0  0  0  0  0  0  0  0
   63.2090  154.6170  -47.1630 C   0  0  0  0  0  0  0  0  0  0  0  0
   63.1250  153.6270  -46.1670 C   0  0  0  0  0  0  0  0  0  0  0  0
   62.3980  153.8600  -44.9860 C   0  0  0  0  0  0  0  0  0  0  0  0
   61.7280  155.0790  -44.8040 C   0  0  0  0  0  0  0  0  0  0  0  0
   61.7740  156.0570  -45.8070 C   0  0  0  0  0  0  0  0  0  0  0  0
   62.5100  155.8180  -46.9800 C   0  0  0  0  0  0  0  0  0  0  0  0
   69.1130  151.5680  -49.6990 O   0  0  0  0  0  0  0  0  0  0  0  0
   68.0320  151.0260  -43.8570 O   0  0  0  0  0  0  0  0  0  0  0  0
   65.8600  152.5680  -47.6670 S   0  0  0  0  0  0  0  0  0  0  0  0
   68.8460  148.5060  -44.3470 H   0  0  0  0  0  0  0  0  0  0  0  0
   67.0570  153.7810  -51.8440 H   0  0  0  0  0  0  0  0  0  0  0  0
   68.2750  152.7260  -51.1230 H   0  0  0  0  0  0  0  0  0  0  0  0
   68.0130  152.3430  -46.0530 H   0  0  0  0  0  0  0  0  0  0  0  0
   63.6710  155.0890  -49.0750 H   0  0  0  0  0  0  0  0  0  0  0  0
   69.1710  149.0490  -48.6040 H   0  0  0  0  0  0  0  0  0  0  0  0
   69.3980  147.5980  -46.5860 H   0  0  0  0  0  0  0  0  0  0  0  0
   67.2830  150.8250  -41.8950 H   0  0  0  0  0  0  0  0  0  0  0  0
   68.5260  149.6370  -42.3400 H   0  0  0  0  0  0  0  0  0  0  0  0
   66.8750  149.4940  -42.9870 H   0  0  0  0  0  0  0  0  0  0  0  0
   63.6080  152.6640  -46.2920 H   0  0  0  0  0  0  0  0  0  0  0  0
   62.3610  153.0990  -44.2060 H   0  0  0  0  0  0  0  0  0  0  0  0
   61.1700  155.2630  -43.8860 H   0  0  0  0  0  0  0  0  0  0  0  0
   61.2420  157.0020  -45.6770 H   0  0  0  0  0  0  0  0  0  0  0  0
   62.5490  156.5810  -47.7520 H   0  0  0  0  0  0  0  0  0  0  0  0
  1 13  1  0  0  0  0
  1 14  2  0  0  0  0
  2 13  1  0  0  0  0
  2 25  1  0  0  0  0
  2 26  1  0  0  0  0
  3 14  1  0  0  0  0
  3 15  1  0  0  0  0
  3 28  1  0  0  0  0
  4  5  2  0  0  0  0
  4  8  1  0  0  0  0
  4 24  1  0  0  0  0
  5  6  1  0  0  0  0
  5 22  1  0  0  0  0
  6 10  2  0  0  0  0
  6 27  1  0  0  0  0
  7  8  2  0  0  0  0
  7 10  1  0  0  0  0
  7 29  1  0  0  0  0
  8 30  1  0  0  0  0
  9 22  1  0  0  0  0
  9 31  1  0  0  0  0
  9 32  1  0  0  0  0
  9 33  1  0  0  0  0
 11 10  1  0  0  0  0
 11 12  1  0  0  0  0
 11 21  2  0  0  0  0
 12 13  2  0  0  0  0
 12 23  1  0  0  0  0
 14 23  1  0  0  0  0
 15 16  2  0  0  0  0
 15 20  1  0  0  0  0
 16 17  1  0  0  0  0
 16 34  1  0  0  0  0
 17 18  2  0  0  0  0
 17 35  1  0  0  0  0
 18 19  1  0  0  0  0
 18 36  1  0  0  0  0
 19 20  2  0  0  0  0
 19 37  1  0  0  0  0
 20 38  1  0  0  0  0
M  END
>  <lm5_entropy_jk>
31.97375871552738

>  <number_of_rotatable_bonds>
5

>  <IC50_NM>
3100

>  <charge>
0

$$$$
