model25d
 OpenBabel11252210453D

 84 88  0  0  1  0  0  0  0  0999 V2000
    1.6900    2.0360   11.7930 C   0  0  0  0  0  0  0  0  0  0  0  0
    0.5820    4.0240   10.9410 N   0  0  0  0  0  0  0  0  0  0  0  0
    2.9390    2.5900   11.4730 C   0  0  0  0  0  0  0  0  0  0  0  0
    5.2710    0.6000   16.5230 O   0  0  0  0  0  0  0  0  0  0  0  0
    3.4580   -1.4880   12.9090 O   0  0  0  0  0  0  0  0  0  0  0  0
    2.9960    3.8450   10.8670 C   0  0  0  0  0  0  0  0  0  0  0  0
    4.7090    0.2260   13.9030 N   0  0  0  0  0  0  0  0  0  0  0  0
    2.5480    0.5720   13.4450 O   0  0  0  0  0  0  0  0  0  0  0  0
    1.7960    4.5150   10.5790 C   0  0  0  0  0  0  0  0  0  0  0  0
    2.9290   -5.0660   16.9530 C   0  0  0  0  0  0  0  0  0  0  0  0
    5.5420   -3.6730   16.7220 N   0  0  0  0  0  0  0  0  0  0  0  0
    3.3050   -5.9130   18.0070 C   0  0  0  0  0  0  0  0  0  0  0  0
    5.8780   -4.6850   14.7110 O   0  0  0  0  0  0  0  0  0  0  0  0
    0.5350    2.8040   11.5380 C   0  0  0  0  0  0  0  0  0  0  0  0
    3.1570   -7.2950   17.8780 C   0  0  0  0  0  0  0  0  0  0  0  0
    2.6570   -7.8400   16.6920 C   0  0  0  0  0  0  0  0  0  0  0  0
    2.2840   -6.9950   15.6410 C   0  0  0  0  0  0  0  0  0  0  0  0
    5.6570  -10.8840   18.3840 C   0  0  0  0  0  0  0  0  0  0  0  0
    2.4110   -5.6110   15.7690 C   0  0  0  0  0  0  0  0  0  0  0  0
    1.5790    0.6480   12.3620 C   0  0  0  0  0  0  0  0  0  0  0  0
    3.5720   -0.3750   13.3760 C   0  0  0  0  0  0  0  0  0  0  0  0
    5.7880   -0.6040   14.4960 C   0  0  1  0  0  0  0  0  0  0  0  0
    4.5670  -11.7870   17.8640 C   0  0  0  0  0  0  0  0  0  0  0  0
    8.0240   -0.1700   10.5310 C   0  0  0  0  0  0  0  0  0  0  0  0
    7.6120    1.0790   10.0550 C   0  0  0  0  0  0  0  0  0  0  0  0
    7.0750    2.0160   10.9430 C   0  0  0  0  0  0  0  0  0  0  0  0
    6.9420    1.7020   12.2980 C   0  0  0  0  0  0  0  0  0  0  0  0
    7.3320    0.4390   12.7740 C   0  0  0  0  0  0  0  0  0  0  0  0
    7.8840   -0.4940   11.8830 C   0  0  0  0  0  0  0  0  0  0  0  0
    7.1480    0.0900   14.2260 C   0  0  0  0  0  0  0  0  0  0  0  0
    5.5560   -0.7420   16.0290 C   0  0  2  0  0  0  0  0  0  0  0  0
    4.3200   -1.5150   16.4770 C   0  0  0  0  0  0  0  0  0  0  0  0
    4.2720   -3.0330   16.2730 C   0  0  2  0  0  0  0  0  0  0  0  0
    6.1530   -4.6050   15.9000 C   0  0  0  0  0  0  0  0  0  0  0  0
    7.2580   -5.4850   16.5170 C   0  0  1  0  0  0  0  0  0  0  0  0
    7.3850   -5.1600   17.9320 O   0  0  0  0  0  0  0  0  0  0  0  0
    3.0830   -3.5820   17.1010 C   0  0  0  0  0  0  0  0  0  0  0  0
    7.0360   -6.2520   18.7400 C   0  0  0  0  0  0  0  0  0  0  0  0
    7.0130   -6.1290   19.9330 O   0  0  0  0  0  0  0  0  0  0  0  0
    6.7320   -7.3450   17.9120 N   0  0  0  0  0  0  0  0  0  0  0  0
    6.9110   -6.9920   16.4700 C   0  0  0  0  0  0  0  0  0  0  0  0
    6.7230   -8.7110   18.3640 C   0  0  0  0  0  0  0  0  0  0  0  0
    5.7160   -9.5710   17.9000 C   0  0  0  0  0  0  0  0  0  0  0  0
    6.5780  -11.3350   19.3350 C   0  0  0  0  0  0  0  0  0  0  0  0
    7.5850  -10.4700   19.7810 C   0  0  0  0  0  0  0  0  0  0  0  0
    7.6750   -9.1660   19.2950 C   0  0  0  0  0  0  0  0  0  0  0  0
    3.3350  -11.4390   18.2770 F   0  0  0  0  0  0  0  0  0  0  0  0
    4.4550  -11.8260   16.5230 F   0  0  0  0  0  0  0  0  0  0  0  0
    4.6510  -13.0870   18.1960 F   0  0  0  0  0  0  0  0  0  0  0  0
    3.8660    2.0460   11.6810 H   0  0  0  0  0  0  0  0  0  0  0  0
   -0.4680    2.4290   11.7980 H   0  0  0  0  0  0  0  0  0  0  0  0
    3.9560    4.2940   10.5930 H   0  0  0  0  0  0  0  0  0  0  0  0
    4.6060    1.1470   14.3560 H   0  0  0  0  0  0  0  0  0  0  0  0
    5.7080   -3.6590   17.7440 H   0  0  0  0  0  0  0  0  0  0  0  0
    4.2510   -1.3240   17.5830 H   0  0  0  0  0  0  0  0  0  0  0  0
    3.7030   -5.4900   18.9300 H   0  0  0  0  0  0  0  0  0  0  0  0
    3.4290   -7.9450   18.7100 H   0  0  0  0  0  0  0  0  0  0  0  0
    2.5500   -8.9210   16.5920 H   0  0  0  0  0  0  0  0  0  0  0  0
    1.8910   -7.4160   14.7220 H   0  0  0  0  0  0  0  0  0  0  0  0
    2.0930   -4.9540   14.9620 H   0  0  0  0  0  0  0  0  0  0  0  0
    1.7950   -0.1240   11.5840 H   0  0  0  0  0  0  0  0  0  0  0  0
    5.8020   -1.6200   14.0220 H   0  0  0  0  0  0  0  0  0  0  0  0
    0.6020    0.4640   12.8690 H   0  0  0  0  0  0  0  0  0  0  0  0
    1.8110    5.4660   10.0250 H   0  0  0  0  0  0  0  0  0  0  0  0
    6.1580    0.9070   16.9560 H   0  0  0  0  0  0  0  0  0  0  0  0
    8.4540   -0.8950    9.8430 H   0  0  0  0  0  0  0  0  0  0  0  0
    7.7100    1.3270    8.9970 H   0  0  0  0  0  0  0  0  0  0  0  0
    6.7590    2.9970   10.5800 H   0  0  0  0  0  0  0  0  0  0  0  0
    6.5290    2.4450   12.9840 H   0  0  0  0  0  0  0  0  0  0  0  0
    8.2120   -1.4660   12.2480 H   0  0  0  0  0  0  0  0  0  0  0  0
    7.9670   -0.5860   14.5780 H   0  0  0  0  0  0  0  0  0  0  0  0
    7.2230    1.0200   14.8510 H   0  0  0  0  0  0  0  0  0  0  0  0
    6.4760   -1.1280   16.5270 H   0  0  0  0  0  0  0  0  0  0  0  0
    3.4110   -1.0780   15.9960 H   0  0  0  0  0  0  0  0  0  0  0  0
    4.1160   -3.2700   15.1860 H   0  0  0  0  0  0  0  0  0  0  0  0
    8.2520   -5.2400   16.0690 H   0  0  0  0  0  0  0  0  0  0  0  0
    3.2370   -3.3230   18.1810 H   0  0  0  0  0  0  0  0  0  0  0  0
    2.1480   -3.0630   16.7790 H   0  0  0  0  0  0  0  0  0  0  0  0
    7.7370   -7.5950   16.0100 H   0  0  0  0  0  0  0  0  0  0  0  0
    5.9490   -7.1920   15.9280 H   0  0  0  0  0  0  0  0  0  0  0  0
    4.9950   -9.2180   17.1550 H   0  0  0  0  0  0  0  0  0  0  0  0
    6.5430  -12.3530   19.7350 H   0  0  0  0  0  0  0  0  0  0  0  0
    8.3140  -10.8270   20.5180 H   0  0  0  0  0  0  0  0  0  0  0  0
    8.4870   -8.5230   19.6410 H   0  0  0  0  0  0  0  0  0  0  0  0
  1  3  1  0  0  0  0
  1 20  1  0  0  0  0
  2  9  2  0  0  0  0
  2 14  1  0  0  0  0
  3 50  1  0  0  0  0
  4 65  1  0  0  0  0
  5 21  2  0  0  0  0
  6 52  1  0  0  0  0
  6  3  2  0  0  0  0
  7 22  1  0  0  0  0
  7 53  1  0  0  0  0
  8 21  1  0  0  0  0
  9  6  1  0  0  0  0
 10 37  1  0  0  0  0
 10 12  1  0  0  0  0
 11 54  1  0  0  0  0
 12 56  1  0  0  0  0
 13 34  2  0  0  0  0
 14  1  2  0  0  0  0
 15 12  2  0  0  0  0
 15 57  1  0  0  0  0
 16 15  1  0  0  0  0
 17 19  1  0  0  0  0
 17 16  2  0  0  0  0
 18 44  1  0  0  0  0
 19 10  2  0  0  0  0
 20  8  1  0  0  0  0
 21  7  1  0  0  0  0
 22 62  1  6  0  0  0
 22 31  1  0  0  0  0
 23 49  1  0  0  0  0
 23 18  1  0  0  0  0
 24 29  1  0  0  0  0
 25 24  2  0  0  0  0
 25 26  1  0  0  0  0
 26 27  2  0  0  0  0
 27 28  1  0  0  0  0
 27 69  1  0  0  0  0
 28 30  1  0  0  0  0
 29 70  1  0  0  0  0
 29 28  2  0  0  0  0
 30 71  1  0  0  0  0
 30 22  1  0  0  0  0
 30 72  1  0  0  0  0
 31 73  1  1  0  0  0
 31  4  1  0  0  0  0
 31 32  1  0  0  0  0
 32 55  1  0  0  0  0
 33 75  1  6  0  0  0
 33 32  1  0  0  0  0
 33 11  1  0  0  0  0
 33 37  1  0  0  0  0
 34 11  1  0  0  0  0
 34 35  1  0  0  0  0
 35 76  1  6  0  0  0
 35 36  1  0  0  0  0
 36 38  1  0  0  0  0
 37 77  1  0  0  0  0
 38 39  2  0  0  0  0
 40 42  1  0  0  0  0
 40 38  1  0  0  0  0
 41 35  1  0  0  0  0
 41 40  1  0  0  0  0
 42 46  2  0  0  0  0
 43 18  2  0  0  0  0
 43 42  1  0  0  0  0
 44 82  1  0  0  0  0
 44 45  2  0  0  0  0
 45 83  1  0  0  0  0
 46 45  1  0  0  0  0
 46 84  1  0  0  0  0
 47 23  1  0  0  0  0
 48 23  1  0  0  0  0
 51 14  1  0  0  0  0
 58 16  1  0  0  0  0
 59 17  1  0  0  0  0
 60 19  1  0  0  0  0
 61 20  1  0  0  0  0
 63 20  1  0  0  0  0
 64  9  1  0  0  0  0
 66 24  1  0  0  0  0
 67 25  1  0  0  0  0
 68 26  1  0  0  0  0
 74 32  1  0  0  0  0
 78 37  1  0  0  0  0
 79 41  1  0  0  0  0
 80 41  1  0  0  0  0
 81 43  1  0  0  0  0
M  END
>  <charge>
0

>  <KI_NM>
41.09

>  <number_of_rotatable_bonds>
17

>  <lm5_entropy_jk>
26.86894624216464

>  <ligand_crystal_conformation>
C

$$$$
