4IVD
 OpenBabel11252210453D

 48 51  0  0  1  0  0  0  0  0999 V2000
  -10.4810   29.0740    2.1120 C   0  0  0  0  0  0  0  0  0  0  0  0
  -11.4740   29.4990    1.0400 C   0  0  1  0  0  0  0  0  0  0  0  0
  -10.8530   29.9210   -0.1860 O   0  0  0  0  0  0  0  0  0  0  0  0
  -12.4810   28.4130    0.7200 C   0  0  0  0  0  0  0  0  0  0  0  0
  -13.6950   28.6660   -0.0030 N   0  0  0  0  0  0  0  0  0  0  0  0
  -14.4240   27.4690    0.0200 C   0  0  0  0  0  0  0  0  0  0  0  0
  -13.5830   26.5190    0.7110 C   0  0  0  0  0  0  0  0  0  0  0  0
  -12.4050   27.1390    1.1330 N   0  0  0  0  0  0  0  0  0  0  0  0
  -13.9710   25.1550    0.8940 C   0  0  0  0  0  0  0  0  0  0  0  0
  -15.1300   24.6900    0.4350 N   0  0  0  0  0  0  0  0  0  0  0  0
  -15.9500   25.6080   -0.2080 C   0  0  0  0  0  0  0  0  0  0  0  0
  -15.6800   27.0080   -0.4460 C   0  0  0  0  0  0  0  0  0  0  0  0
  -16.8250   27.5280   -1.1250 C   0  0  0  0  0  0  0  0  0  0  0  0
  -17.7320   26.4870   -1.2960 C   0  0  0  0  0  0  0  0  0  0  0  0
  -17.2030   25.3040   -0.7510 N   0  0  0  0  0  0  0  0  0  0  0  0
  -14.0200   29.9910   -0.6030 C   0  0  1  0  0  0  0  0  0  0  0  0
  -14.3240   29.9270   -2.1120 C   0  0  0  0  0  0  0  0  0  0  0  0
  -14.5760   31.3460   -2.6540 C   0  0  0  0  0  0  0  0  0  0  0  0
  -15.6820   32.0770   -1.8570 C   0  0  1  0  0  0  0  0  0  0  0  0
  -15.3520   32.0930   -0.3500 C   0  0  0  0  0  0  0  0  0  0  0  0
  -15.1650   30.6650    0.1800 C   0  0  0  0  0  0  0  0  0  0  0  0
  -15.8700   33.5150   -2.3910 C   0  0  0  0  0  0  0  0  0  0  0  0
  -17.2920   34.0580   -2.1630 C   0  0  0  0  0  0  0  0  0  0  0  0
  -17.4960   34.7050   -0.8820 C   0  0  0  0  0  0  0  0  0  0  0  0
  -17.7080   35.2230    0.1310 N   0  0  0  0  0  0  0  0  0  0  0  0
  -12.0220   30.4250    1.3600 H   0  0  0  0  0  0  0  0  0  0  0  0
  -13.3060   24.4620    1.4320 H   0  0  0  0  0  0  0  0  0  0  0  0
  -16.9860   28.5340   -1.4660 H   0  0  0  0  0  0  0  0  0  0  0  0
  -18.6930   26.5050   -1.7850 H   0  0  0  0  0  0  0  0  0  0  0  0
  -13.0950   30.6300   -0.4910 H   0  0  0  0  0  0  0  0  0  0  0  0
  -15.2280   29.3020   -2.3100 H   0  0  0  0  0  0  0  0  0  0  0  0
  -13.4610   29.4820   -2.6580 H   0  0  0  0  0  0  0  0  0  0  0  0
  -13.6410   31.9470   -2.6260 H   0  0  0  0  0  0  0  0  0  0  0  0
  -14.9010   31.2620   -3.7190 H   0  0  0  0  0  0  0  0  0  0  0  0
  -16.6340   31.5060   -2.0120 H   0  0  0  0  0  0  0  0  0  0  0  0
  -14.4170   32.6780   -0.1940 H   0  0  0  0  0  0  0  0  0  0  0  0
  -16.1820   32.5930    0.1990 H   0  0  0  0  0  0  0  0  0  0  0  0
  -16.1060   30.0830    0.0370 H   0  0  0  0  0  0  0  0  0  0  0  0
  -14.9200   30.6920    1.2650 H   0  0  0  0  0  0  0  0  0  0  0  0
  -15.1260   34.2030   -1.9300 H   0  0  0  0  0  0  0  0  0  0  0  0
  -15.6930   33.5100   -3.4960 H   0  0  0  0  0  0  0  0  0  0  0  0
  -18.0290   33.2080   -2.2520 H   0  0  0  0  0  0  0  0  0  0  0  0
  -17.5320   34.8000   -2.9790 H   0  0  0  0  0  0  0  0  0  0  0  0
  -17.7060   24.4140   -0.6720 H   0  0  0  0  0  0  0  0  0  0  0  0
   -9.9130   29.5160   -0.2760 H   0  0  0  0  0  0  0  0  0  0  0  0
   -9.8110   29.9270    2.3770 H   0  0  0  0  0  0  0  0  0  0  0  0
   -9.8610   28.2080    1.7870 H   0  0  0  0  0  0  0  0  0  0  0  0
  -11.0240   28.7750    3.0430 H   0  0  0  0  0  0  0  0  0  0  0  0
  1  2  1  0  0  0  0
  2  4  1  0  0  0  0
  2  3  1  0  0  0  0
  2 26  1  1  0  0  0
  4  5  1  0  0  0  0
  4  8  2  0  0  0  0
  6  7  1  0  0  0  0
  6  5  1  0  0  0  0
  7  8  1  0  0  0  0
  9  7  2  0  0  0  0
  9 10  1  0  0  0  0
 11 12  1  0  0  0  0
 11 10  2  0  0  0  0
 11 15  1  0  0  0  0
 12 13  1  0  0  0  0
 12  6  2  0  0  0  0
 13 14  2  0  0  0  0
 14 15  1  0  0  0  0
 16 17  1  0  0  0  0
 16 21  1  0  0  0  0
 16  5  1  0  0  0  0
 16 30  1  1  0  0  0
 17 18  1  0  0  0  0
 18 19  1  0  0  0  0
 19 20  1  0  0  0  0
 19 22  1  0  0  0  0
 19 35  1  6  0  0  0
 20 21  1  0  0  0  0
 22 23  1  0  0  0  0
 23 24  1  0  0  0  0
 24 25  3  0  0  0  0
 27  9  1  0  0  0  0
 28 13  1  0  0  0  0
 29 14  1  0  0  0  0
 31 17  1  0  0  0  0
 32 17  1  0  0  0  0
 33 18  1  0  0  0  0
 34 18  1  0  0  0  0
 36 20  1  0  0  0  0
 37 20  1  0  0  0  0
 38 21  1  0  0  0  0
 39 21  1  0  0  0  0
 40 22  1  0  0  0  0
 41 22  1  0  0  0  0
 42 23  1  0  0  0  0
 43 23  1  0  0  0  0
 44 15  1  0  0  0  0
 45  3  1  0  0  0  0
 46  1  1  0  0  0  0
 47  1  1  0  0  0  0
 48  1  1  0  0  0  0
M  END
>  <charge>
0

>  <pKi>
9.52

>  <number_of_rotatable_bonds>
4

>  <lm5_entropy_jk>
29.79021667027897

$$$$
