3NU3
 OpenBabel11252210453D

 70 72  0  0  1  0  0  0  0  0999 V2000
    8.3090   -6.3810   18.1940 C   0  0  0  0  0  0  0  0  0  0  0  0
    5.6510   -3.0620   16.6710 N   0  0  0  0  0  0  0  0  0  0  0  0
    7.1130   -4.5880   17.1830 O   0  0  0  0  0  0  0  0  0  0  0  0
    3.1560   -0.4600   12.6740 S   0  0  0  0  0  0  0  0  0  0  0  0
    9.4710   -4.7150   16.8700 C   0  0  0  0  0  0  0  0  0  0  0  0
    4.4970    0.0560   13.6360 N   0  0  0  0  0  0  0  0  0  0  0  0
    6.9660   -3.8690   15.0000 O   0  0  0  0  0  0  0  0  0  0  0  0
    6.6210   -3.8440   16.1690 C   0  0  0  0  0  0  0  0  0  0  0  0
    0.7780    4.0430    9.7850 N   0  0  0  0  0  0  0  0  0  0  0  0
    5.1200   -0.2740   17.3420 O   0  0  0  0  0  0  0  0  0  0  0  0
    8.1680   -5.5110   16.9360 C   0  0  1  0  0  0  0  0  0  0  0  0
    2.1440   -0.9990   13.5770 O   0  0  0  0  0  0  0  0  0  0  0  0
    4.7450   -2.2270   15.8970 C   0  0  2  0  0  0  0  0  0  0  0  0
    3.7890   -1.3260   11.6850 O   0  0  0  0  0  0  0  0  0  0  0  0
    5.1760   -0.7330   15.9960 C   0  0  1  0  0  0  0  0  0  0  0  0
    9.4220   -5.8140   18.9190 O   0  0  0  0  0  0  0  0  0  0  0  0
    3.3090   -2.5580   16.3690 C   0  0  0  0  0  0  0  0  0  0  0  0
    2.9910   -4.0210   16.1140 C   0  0  0  0  0  0  0  0  0  0  0  0
    3.2370   -4.9800   17.1090 C   0  0  0  0  0  0  0  0  0  0  0  0
    2.5470   -4.4330   14.8490 C   0  0  0  0  0  0  0  0  0  0  0  0
    3.0680   -6.3470   16.8360 C   0  0  0  0  0  0  0  0  0  0  0  0
    2.3660   -5.7980   14.5710 C   0  0  0  0  0  0  0  0  0  0  0  0
    2.6380   -6.7560   15.5630 C   0  0  0  0  0  0  0  0  0  0  0  0
    4.3280    0.2270   15.1270 C   0  0  0  0  0  0  0  0  0  0  0  0
    5.5760    0.9070   13.0030 C   0  0  0  0  0  0  0  0  0  0  0  0
    6.9880    0.7160   13.5490 C   0  0  0  0  0  0  0  0  0  0  0  0
    2.4830    0.9750   11.9240 C   0  0  0  0  0  0  0  0  0  0  0  0
    1.1110    1.1730   12.0480 C   0  0  0  0  0  0  0  0  0  0  0  0
    0.5380    2.2010   11.3050 C   0  0  0  0  0  0  0  0  0  0  0  0
    1.3170    3.0410   10.5220 C   0  0  0  0  0  0  0  0  0  0  0  0
    2.6720    2.8410   10.4410 C   0  0  0  0  0  0  0  0  0  0  0  0
    3.2660    1.7700   11.0890 C   0  0  0  0  0  0  0  0  0  0  0  0
    7.4640   -0.6980   13.2060 C   0  0  0  0  0  0  0  0  0  0  0  0
    7.9170    1.7030   12.8480 C   0  0  0  0  0  0  0  0  0  0  0  0
   10.3620   -5.3020   17.9660 C   0  0  0  0  0  0  0  0  0  0  0  0
    8.5170   -7.4190   17.9010 H   0  0  0  0  0  0  0  0  0  0  0  0
    7.3820   -6.3620   18.7820 H   0  0  0  0  0  0  0  0  0  0  0  0
    5.5660   -3.0970   17.6810 H   0  0  0  0  0  0  0  0  0  0  0  0
    9.2760   -3.6570   17.0810 H   0  0  0  0  0  0  0  0  0  0  0  0
    9.9330   -4.7790   15.8760 H   0  0  0  0  0  0  0  0  0  0  0  0
   -0.2280    4.1460    9.6690 H   0  0  0  0  0  0  0  0  0  0  0  0
    1.3750    4.5280    9.1310 H   0  0  0  0  0  0  0  0  0  0  0  0
    6.0450   -0.0630   17.6190 H   0  0  0  0  0  0  0  0  0  0  0  0
    7.9790   -6.1260   16.0380 H   0  0  0  0  0  0  0  0  0  0  0  0
    4.8300   -2.5100   14.8380 H   0  0  0  0  0  0  0  0  0  0  0  0
    6.2210   -0.6920   15.6650 H   0  0  0  0  0  0  0  0  0  0  0  0
    2.5800   -1.9210   15.8610 H   0  0  0  0  0  0  0  0  0  0  0  0
    3.2130   -2.3150   17.4320 H   0  0  0  0  0  0  0  0  0  0  0  0
    3.6010   -4.6610   18.0830 H   0  0  0  0  0  0  0  0  0  0  0  0
    2.3520   -3.6850   14.0850 H   0  0  0  0  0  0  0  0  0  0  0  0
    3.2800   -7.0890   17.6060 H   0  0  0  0  0  0  0  0  0  0  0  0
    2.0280   -6.1120   13.5870 H   0  0  0  0  0  0  0  0  0  0  0  0
    2.5220   -7.8170   15.3520 H   0  0  0  0  0  0  0  0  0  0  0  0
    3.2750    0.1110   15.4140 H   0  0  0  0  0  0  0  0  0  0  0  0
    4.5940    1.2410   15.4280 H   0  0  0  0  0  0  0  0  0  0  0  0
    5.3130    1.9740   13.0560 H   0  0  0  0  0  0  0  0  0  0  0  0
    5.6890    0.6460   11.9430 H   0  0  0  0  0  0  0  0  0  0  0  0
    7.0200    0.9210   14.6320 H   0  0  0  0  0  0  0  0  0  0  0  0
    0.4700    0.5150   12.6460 H   0  0  0  0  0  0  0  0  0  0  0  0
   -0.5340    2.2950   11.3160 H   0  0  0  0  0  0  0  0  0  0  0  0
    3.2750    3.4660    9.7890 H   0  0  0  0  0  0  0  0  0  0  0  0
    4.3100    1.5690   10.8660 H   0  0  0  0  0  0  0  0  0  0  0  0
    8.4750   -0.8730   13.5680 H   0  0  0  0  0  0  0  0  0  0  0  0
    6.8390   -1.4470   13.6940 H   0  0  0  0  0  0  0  0  0  0  0  0
    7.4590   -0.8870   12.1270 H   0  0  0  0  0  0  0  0  0  0  0  0
    8.9060    1.6900   13.3150 H   0  0  0  0  0  0  0  0  0  0  0  0
    8.0380    1.4800   11.7800 H   0  0  0  0  0  0  0  0  0  0  0  0
    7.5430    2.7320   12.9410 H   0  0  0  0  0  0  0  0  0  0  0  0
   11.0150   -4.5390   18.4130 H   0  0  0  0  0  0  0  0  0  0  0  0
   10.9760   -6.1210   17.5620 H   0  0  0  0  0  0  0  0  0  0  0  0
  1 11  1  0  0  0  0
  1 16  1  0  0  0  0
  1 36  1  0  0  0  0
  1 37  1  0  0  0  0
  2  8  1  0  0  0  0
  2 13  1  0  0  0  0
  2 38  1  0  0  0  0
  3  8  1  0  0  0  0
  3 11  1  0  0  0  0
  4  6  1  0  0  0  0
  4 12  2  0  0  0  0
  4 14  2  0  0  0  0
  4 27  1  0  0  0  0
  5 11  1  0  0  0  0
  5 35  1  0  0  0  0
  5 39  1  0  0  0  0
  5 40  1  0  0  0  0
  6 24  1  0  0  0  0
  6 25  1  0  0  0  0
  7  8  2  0  0  0  0
  9 30  1  0  0  0  0
  9 41  1  0  0  0  0
  9 42  1  0  0  0  0
 10 15  1  0  0  0  0
 10 43  1  0  0  0  0
 11 44  1  6  0  0  0
 13 15  1  0  0  0  0
 13 17  1  0  0  0  0
 13 45  1  6  0  0  0
 15 24  1  0  0  0  0
 15 46  1  6  0  0  0
 16 35  1  0  0  0  0
 17 18  1  0  0  0  0
 17 47  1  0  0  0  0
 17 48  1  0  0  0  0
 18 19  2  0  0  0  0
 18 20  1  0  0  0  0
 19 21  1  0  0  0  0
 19 49  1  0  0  0  0
 20 22  2  0  0  0  0
 20 50  1  0  0  0  0
 21 23  2  0  0  0  0
 21 51  1  0  0  0  0
 22 23  1  0  0  0  0
 22 52  1  0  0  0  0
 23 53  1  0  0  0  0
 24 54  1  0  0  0  0
 24 55  1  0  0  0  0
 25 26  1  0  0  0  0
 25 56  1  0  0  0  0
 25 57  1  0  0  0  0
 26 33  1  0  0  0  0
 26 34  1  0  0  0  0
 26 58  1  0  0  0  0
 27 28  2  0  0  0  0
 27 32  1  0  0  0  0
 28 29  1  0  0  0  0
 28 59  1  0  0  0  0
 29 30  2  0  0  0  0
 29 60  1  0  0  0  0
 30 31  1  0  0  0  0
 31 32  2  0  0  0  0
 31 61  1  0  0  0  0
 32 62  1  0  0  0  0
 33 63  1  0  0  0  0
 33 64  1  0  0  0  0
 33 65  1  0  0  0  0
 34 66  1  0  0  0  0
 34 67  1  0  0  0  0
 34 68  1  0  0  0  0
 35 69  1  0  0  0  0
 35 70  1  0  0  0  0
M  END
>  <charge>
0

>  <KI_NM>
0.18

>  <number_of_rotatable_bonds>
13

>  <lm5_entropy_jk>
43.32186921337585

>  <ligand_crystal_conformation>
B

$$$$
