3NU3
 OpenBabel11252210453D

 70 72  0  0  1  0  0  0  0  0999 V2000
    8.6670   -6.5230   18.4950 C   0  0  0  0  0  0  0  0  0  0  0  0
    5.6990   -3.4060   17.0880 N   0  0  0  0  0  0  0  0  0  0  0  0
    7.3120   -4.8180   17.5060 O   0  0  0  0  0  0  0  0  0  0  0  0
    3.3950   -1.1960   13.0210 S   0  0  0  0  0  0  0  0  0  0  0  0
    9.6620   -4.8860   17.0140 C   0  0  0  0  0  0  0  0  0  0  0  0
    4.3950   -0.2400   14.0420 N   0  0  0  0  0  0  0  0  0  0  0  0
    6.9310   -4.1590   15.3260 O   0  0  0  0  0  0  0  0  0  0  0  0
    6.6840   -4.1310   16.5220 C   0  0  0  0  0  0  0  0  0  0  0  0
   -0.2550    2.9710   11.1290 N   0  0  0  0  0  0  0  0  0  0  0  0
    5.1170   -0.5860   17.6660 O   0  0  0  0  0  0  0  0  0  0  0  0
    8.3890   -5.7120   17.2160 C   0  0  1  0  0  0  0  0  0  0  0  0
    2.6240   -2.0590   13.9110 O   0  0  0  0  0  0  0  0  0  0  0  0
    4.6940   -2.6250   16.3650 C   0  0  2  0  0  0  0  0  0  0  0  0
    4.3040   -1.7520   12.0130 O   0  0  0  0  0  0  0  0  0  0  0  0
    5.0920   -1.1060   16.3460 C   0  0  1  0  0  0  0  0  0  0  0  0
    9.8650   -5.9470   19.0670 O   0  0  0  0  0  0  0  0  0  0  0  0
    3.3230   -2.9430   17.0120 C   0  0  0  0  0  0  0  0  0  0  0  0
    3.0140   -4.4270   16.9890 C   0  0  0  0  0  0  0  0  0  0  0  0
    3.2360   -5.2190   18.1260 C   0  0  0  0  0  0  0  0  0  0  0  0
    2.5490   -5.0240   15.8090 C   0  0  0  0  0  0  0  0  0  0  0  0
    3.0010   -6.6040   18.0850 C   0  0  0  0  0  0  0  0  0  0  0  0
    2.3010   -6.4060   15.7630 C   0  0  0  0  0  0  0  0  0  0  0  0
    2.5340   -7.1980   16.9010 C   0  0  0  0  0  0  0  0  0  0  0  0
    4.1720   -0.1690   15.5280 C   0  0  0  0  0  0  0  0  0  0  0  0
    5.3010    0.8210   13.4610 C   0  0  0  0  0  0  0  0  0  0  0  0
    6.7950    0.5870   13.7600 C   0  0  0  0  0  0  0  0  0  0  0  0
    2.3120    0.0280   12.4060 C   0  0  0  0  0  0  0  0  0  0  0  0
    1.1440    0.2630   13.1210 C   0  0  0  0  0  0  0  0  0  0  0  0
    0.2870    1.2600   12.6680 C   0  0  0  0  0  0  0  0  0  0  0  0
    0.5950    1.9900   11.5370 C   0  0  0  0  0  0  0  0  0  0  0  0
    1.7590    1.7290   10.8330 C   0  0  0  0  0  0  0  0  0  0  0  0
    2.6430    0.7360   11.2570 C   0  0  0  0  0  0  0  0  0  0  0  0
    7.2640   -0.7620   13.1970 C   0  0  0  0  0  0  0  0  0  0  0  0
    7.6270    1.6750   13.0800 C   0  0  0  0  0  0  0  0  0  0  0  0
   10.6900   -5.4650   18.0000 C   0  0  0  0  0  0  0  0  0  0  0  0
    8.8260   -7.5790   18.2360 H   0  0  0  0  0  0  0  0  0  0  0  0
    7.8160   -6.4590   19.1870 H   0  0  0  0  0  0  0  0  0  0  0  0
    5.6610   -3.4700   18.0980 H   0  0  0  0  0  0  0  0  0  0  0  0
    9.4660   -3.8360   17.2610 H   0  0  0  0  0  0  0  0  0  0  0  0
   10.0080   -4.9230   15.9730 H   0  0  0  0  0  0  0  0  0  0  0  0
   -1.1320    3.0700   11.6330 H   0  0  0  0  0  0  0  0  0  0  0  0
   -0.1570    3.3400   10.1930 H   0  0  0  0  0  0  0  0  0  0  0  0
    6.0070   -0.1530   17.7580 H   0  0  0  0  0  0  0  0  0  0  0  0
    8.1570   -6.3780   16.3650 H   0  0  0  0  0  0  0  0  0  0  0  0
    4.6660   -2.9710   15.3190 H   0  0  0  0  0  0  0  0  0  0  0  0
    6.1050   -1.0470   15.9200 H   0  0  0  0  0  0  0  0  0  0  0  0
    2.5270   -2.4020   16.4920 H   0  0  0  0  0  0  0  0  0  0  0  0
    3.3120   -2.5670   18.0400 H   0  0  0  0  0  0  0  0  0  0  0  0
    3.6120   -4.7600   19.0370 H   0  0  0  0  0  0  0  0  0  0  0  0
    2.3810   -4.4030   14.9320 H   0  0  0  0  0  0  0  0  0  0  0  0
    3.1840   -7.2150   18.9690 H   0  0  0  0  0  0  0  0  0  0  0  0
    1.9360   -6.8600   14.8470 H   0  0  0  0  0  0  0  0  0  0  0  0
    2.3550   -8.2720   16.8700 H   0  0  0  0  0  0  0  0  0  0  0  0
    3.1260   -0.3880   15.7830 H   0  0  0  0  0  0  0  0  0  0  0  0
    4.3600    0.8550   15.8760 H   0  0  0  0  0  0  0  0  0  0  0  0
    5.0170    1.8180   13.8250 H   0  0  0  0  0  0  0  0  0  0  0  0
    5.2050    0.8670   12.3660 H   0  0  0  0  0  0  0  0  0  0  0  0
    6.9690    0.6340   14.8480 H   0  0  0  0  0  0  0  0  0  0  0  0
    0.8880   -0.3120   14.0120 H   0  0  0  0  0  0  0  0  0  0  0  0
   -0.6340    1.4660   13.2020 H   0  0  0  0  0  0  0  0  0  0  0  0
    1.9940    2.3050    9.9420 H   0  0  0  0  0  0  0  0  0  0  0  0
    3.5660    0.5410   10.7060 H   0  0  0  0  0  0  0  0  0  0  0  0
    8.3470   -0.8840   13.3150 H   0  0  0  0  0  0  0  0  0  0  0  0
    6.7840   -1.5920   13.7250 H   0  0  0  0  0  0  0  0  0  0  0  0
    7.0240   -0.8540   12.1320 H   0  0  0  0  0  0  0  0  0  0  0  0
    8.6890    1.5700   13.3320 H   0  0  0  0  0  0  0  0  0  0  0  0
    7.5370    1.6350   11.9870 H   0  0  0  0  0  0  0  0  0  0  0  0
    7.3130    2.6750   13.4080 H   0  0  0  0  0  0  0  0  0  0  0  0
   11.4040   -4.7060   18.3480 H   0  0  0  0  0  0  0  0  0  0  0  0
   11.2520   -6.2980   17.5460 H   0  0  0  0  0  0  0  0  0  0  0  0
  1 11  1  0  0  0  0
  1 16  1  0  0  0  0
  1 36  1  0  0  0  0
  1 37  1  0  0  0  0
  2  8  1  0  0  0  0
  2 13  1  0  0  0  0
  2 38  1  0  0  0  0
  3  8  1  0  0  0  0
  3 11  1  0  0  0  0
  4  6  1  0  0  0  0
  4 12  2  0  0  0  0
  4 14  2  0  0  0  0
  4 27  1  0  0  0  0
  5 11  1  0  0  0  0
  5 35  1  0  0  0  0
  5 39  1  0  0  0  0
  5 40  1  0  0  0  0
  6 24  1  0  0  0  0
  6 25  1  0  0  0  0
  7  8  2  0  0  0  0
  9 30  1  0  0  0  0
  9 41  1  0  0  0  0
  9 42  1  0  0  0  0
 10 15  1  0  0  0  0
 10 43  1  0  0  0  0
 11 44  1  6  0  0  0
 13 15  1  0  0  0  0
 13 17  1  0  0  0  0
 13 45  1  6  0  0  0
 15 24  1  0  0  0  0
 15 46  1  6  0  0  0
 16 35  1  0  0  0  0
 17 18  1  0  0  0  0
 17 47  1  0  0  0  0
 17 48  1  0  0  0  0
 18 19  2  0  0  0  0
 18 20  1  0  0  0  0
 19 21  1  0  0  0  0
 19 49  1  0  0  0  0
 20 22  2  0  0  0  0
 20 50  1  0  0  0  0
 21 23  2  0  0  0  0
 21 51  1  0  0  0  0
 22 23  1  0  0  0  0
 22 52  1  0  0  0  0
 23 53  1  0  0  0  0
 24 54  1  0  0  0  0
 24 55  1  0  0  0  0
 25 26  1  0  0  0  0
 25 56  1  0  0  0  0
 25 57  1  0  0  0  0
 26 33  1  0  0  0  0
 26 34  1  0  0  0  0
 26 58  1  0  0  0  0
 27 28  2  0  0  0  0
 27 32  1  0  0  0  0
 28 29  1  0  0  0  0
 28 59  1  0  0  0  0
 29 30  2  0  0  0  0
 29 60  1  0  0  0  0
 30 31  1  0  0  0  0
 31 32  2  0  0  0  0
 31 61  1  0  0  0  0
 32 62  1  0  0  0  0
 33 63  1  0  0  0  0
 33 64  1  0  0  0  0
 33 65  1  0  0  0  0
 34 66  1  0  0  0  0
 34 67  1  0  0  0  0
 34 68  1  0  0  0  0
 35 69  1  0  0  0  0
 35 70  1  0  0  0  0
M  END
>  <charge>
0

>  <KI_NM>
0.18

>  <number_of_rotatable_bonds>
13

>  <lm5_entropy_jk>
43.32186921337585

>  <ligand_crystal_conformation>
B

$$$$
