3s0o.pdb
 OpenBabel11252210453D

 30 31  0  0  1  0  0  0  0  0999 V2000
   65.6750  154.6110  -50.3690 N   0  0  0  0  0  0  0  0  0  0  0  0
   67.3200  153.4820  -51.6940 N   0  0  0  0  0  0  0  0  0  0  0  0
   67.8620  151.6330  -46.7240 N   0  0  0  0  0  0  0  0  0  0  0  0
   64.2760  155.4940  -48.6310 N   0  0  0  0  0  0  0  0  0  0  0  0
   66.7410  153.6770  -50.4730 C   0  0  0  0  0  0  0  0  0  0  0  0
   67.0810  152.9550  -49.2980 C   0  0  0  0  0  0  0  0  0  0  0  0
   68.1800  152.0650  -49.1340 C   0  0  0  0  0  0  0  0  0  0  0  0
   68.2410  151.1350  -47.9280 C   0  0  0  0  0  0  0  0  0  0  0  0
   67.9420  150.8330  -45.6290 C   0  0  0  0  0  0  0  0  0  0  0  0
   68.4250  149.5170  -45.7010 C   0  0  0  0  0  0  0  0  0  0  0  0
   68.8200  149.0140  -46.9430 C   0  0  0  0  0  0  0  0  0  0  0  0
   68.7240  149.8230  -48.0800 C   0  0  0  0  0  0  0  0  0  0  0  0
   65.1800  154.5680  -49.1070 C   0  0  0  0  0  0  0  0  0  0  0  0
   63.6910  155.3520  -47.2730 C   0  0  0  0  0  0  0  0  0  0  0  0
   62.7730  154.1680  -47.1120 C   0  0  0  0  0  0  0  0  0  0  0  0
   62.5850  153.5890  -45.9290 C   0  0  0  0  0  0  0  0  0  0  0  0
   69.1000  151.9810  -49.9430 O   0  0  0  0  0  0  0  0  0  0  0  0
   65.9330  153.2980  -48.0380 S   0  0  0  0  0  0  0  0  0  0  0  0
   67.0760  154.0970  -52.4980 H   0  0  0  0  0  0  0  0  0  0  0  0
   68.1740  152.9200  -51.7660 H   0  0  0  0  0  0  0  0  0  0  0  0
   67.6100  151.2610  -44.6700 H   0  0  0  0  0  0  0  0  0  0  0  0
   68.4810  148.8940  -44.8040 H   0  0  0  0  0  0  0  0  0  0  0  0
   69.2060  147.9930  -47.0120 H   0  0  0  0  0  0  0  0  0  0  0  0
   69.0250  149.4320  -49.0550 H   0  0  0  0  0  0  0  0  0  0  0  0
   63.5770  155.8580  -49.3160 H   0  0  0  0  0  0  0  0  0  0  0  0
   63.0870  156.2910  -47.0920 H   0  0  0  0  0  0  0  0  0  0  0  0
   64.5200  155.3160  -46.5220 H   0  0  0  0  0  0  0  0  0  0  0  0
   62.2640  153.8480  -48.0220 H   0  0  0  0  0  0  0  0  0  0  0  0
   63.0930  153.9210  -45.0220 H   0  0  0  0  0  0  0  0  0  0  0  0
   61.9140  152.7500  -45.7830 H   0  0  0  0  0  0  0  0  0  0  0  0
  1  5  1  0  0  0  0
  1 13  2  0  0  0  0
  2  5  1  0  0  0  0
  2 19  1  0  0  0  0
  2 20  1  0  0  0  0
  3  8  2  0  0  0  0
  3  9  1  0  0  0  0
  4 13  1  0  0  0  0
  4 14  1  0  0  0  0
  4 25  1  0  0  0  0
  5  6  2  0  0  0  0
  6 18  1  0  0  0  0
  7  6  1  0  0  0  0
  7  8  1  0  0  0  0
  7 17  2  0  0  0  0
  8 12  1  0  0  0  0
  9 10  2  0  0  0  0
  9 21  1  0  0  0  0
 10 11  1  0  0  0  0
 10 22  1  0  0  0  0
 11 12  2  0  0  0  0
 11 23  1  0  0  0  0
 12 24  1  0  0  0  0
 13 18  1  0  0  0  0
 14 15  1  0  0  0  0
 14 26  1  0  0  0  0
 14 27  1  0  0  0  0
 15 16  2  0  0  0  0
 15 28  1  0  0  0  0
 16 29  1  0  0  0  0
 16 30  1  0  0  0  0
M  END
>  <lm5_entropy_jk>
21.884956070842478

>  <number_of_rotatable_bonds>
5

>  <IC50_NM>
33000

>  <charge>
0

$$$$
