3RTT
 OpenBabel11252210453D

 38 39  0  0  1  0  0  0  0  0999 V2000
    8.5380   26.3050    1.4330 C   0  0  2  0  0  0  0  0  0  0  0  0
    8.7630   23.8520    1.1120 N   0  0  0  0  0  0  0  0  0  0  0  0
    9.2620   26.4130    4.2670 O   0  0  0  0  0  0  0  0  0  0  0  0
    8.0340   27.1580    4.0360 S   0  0  0  0  0  0  0  0  0  0  0  0
    2.8930   24.0620    5.1080 C   0  0  0  0  0  0  0  0  0  0  0  0
    7.6700   27.0800    2.3950 N   0  0  0  0  0  0  0  0  0  0  0  0
    8.4140   22.5650    0.5640 O   0  0  0  0  0  0  0  0  0  0  0  0
    8.8230   27.2930    0.2640 C   0  0  0  0  0  0  0  0  0  0  0  0
    7.9420   28.5370    4.4630 O   0  0  0  0  0  0  0  0  0  0  0  0
    7.1130   28.2590    1.6720 C   0  0  0  0  0  0  0  0  0  0  0  0
    6.8290   24.8090    0.4030 O   0  0  0  0  0  0  0  0  0  0  0  0
    2.8870   22.9590    5.9750 C   0  0  0  0  0  0  0  0  0  0  0  0
    8.2140   28.6440    0.6900 C   0  0  0  0  0  0  0  0  0  0  0  0
    6.7230   26.3010    4.7380 C   0  0  0  0  0  0  0  0  0  0  0  0
    6.6600   24.6960    4.6960 C   0  0  0  0  0  0  0  0  0  0  0  0
    5.3330   24.1260    5.1890 C   0  0  0  0  0  0  0  0  0  0  0  0
    4.1140   24.6330    4.7080 C   0  0  0  0  0  0  0  0  0  0  0  0
    5.3150   23.0380    6.0770 C   0  0  0  0  0  0  0  0  0  0  0  0
    4.0980   22.4440    6.4590 C   0  0  0  0  0  0  0  0  0  0  0  0
    7.9360   24.9400    0.9420 C   0  0  0  0  0  0  0  0  0  0  0  0
    9.5020   26.0460    1.9050 H   0  0  0  0  0  0  0  0  0  0  0  0
    9.7120   23.9360    1.4870 H   0  0  0  0  0  0  0  0  0  0  0  0
    1.9530   24.4610    4.7270 H   0  0  0  0  0  0  0  0  0  0  0  0
    8.4990   21.9310    1.3430 H   0  0  0  0  0  0  0  0  0  0  0  0
    9.8990   27.3750    0.0400 H   0  0  0  0  0  0  0  0  0  0  0  0
    8.3510   26.9480   -0.6690 H   0  0  0  0  0  0  0  0  0  0  0  0
    6.2000   27.9810    1.1200 H   0  0  0  0  0  0  0  0  0  0  0  0
    6.8340   29.1050    2.3290 H   0  0  0  0  0  0  0  0  0  0  0  0
    1.9410   22.5020    6.2660 H   0  0  0  0  0  0  0  0  0  0  0  0
    7.8260   29.2280   -0.1610 H   0  0  0  0  0  0  0  0  0  0  0  0
    8.9640   29.2740    1.1920 H   0  0  0  0  0  0  0  0  0  0  0  0
    6.8260   26.7300    5.7310 H   0  0  0  0  0  0  0  0  0  0  0  0
    5.9590   26.8090    4.1500 H   0  0  0  0  0  0  0  0  0  0  0  0
    6.8170   24.3180    3.6740 H   0  0  0  0  0  0  0  0  0  0  0  0
    7.4930   24.2580    5.2710 H   0  0  0  0  0  0  0  0  0  0  0  0
    4.1120   25.4610    4.0080 H   0  0  0  0  0  0  0  0  0  0  0  0
    6.2480   22.6480    6.4710 H   0  0  0  0  0  0  0  0  0  0  0  0
    4.0910   21.5910    7.1360 H   0  0  0  0  0  0  0  0  0  0  0  0
  1  6  1  0  0  0  0
  1  8  1  0  0  0  0
  1 20  1  0  0  0  0
  1 21  1  1  0  0  0
  2  7  1  0  0  0  0
  2 20  1  0  0  0  0
  2 22  1  0  0  0  0
  3  4  2  0  0  0  0
  4  6  1  0  0  0  0
  4  9  2  0  0  0  0
  4 14  1  0  0  0  0
  5 12  2  0  0  0  0
  5 17  1  0  0  0  0
  5 23  1  0  0  0  0
  6 10  1  0  0  0  0
  7 24  1  0  0  0  0
  8 13  1  0  0  0  0
  8 25  1  0  0  0  0
  8 26  1  0  0  0  0
 10 13  1  0  0  0  0
 10 27  1  0  0  0  0
 10 28  1  0  0  0  0
 11 20  2  0  0  0  0
 12 19  1  0  0  0  0
 12 29  1  0  0  0  0
 13 30  1  0  0  0  0
 13 31  1  0  0  0  0
 14 15  1  0  0  0  0
 14 32  1  0  0  0  0
 14 33  1  0  0  0  0
 15 16  1  0  0  0  0
 15 34  1  0  0  0  0
 15 35  1  0  0  0  0
 16 17  2  0  0  0  0
 16 18  1  0  0  0  0
 17 36  1  0  0  0  0
 18 19  2  0  0  0  0
 18 37  1  0  0  0  0
 19 38  1  0  0  0  0
M  END
>  <lm5_entropy_jk>
24.875493706853458

>  <number_of_rotatable_bonds>
6

>  <deltaG_kcalmol>
-10.64

>  <charge>
0

$$$$
