model36
 OpenBabel11252210453D

 79 80  0  0  1  0  0  0  0  0999 V2000
   11.2810   17.7800    7.6280 C   0  0  0  0  0  0  0  0  0  0  0  0
    8.3680   18.3480    8.9100 N   0  0  0  0  0  0  0  0  0  0  0  0
    9.8770   18.1370    6.9970 C   0  0  0  0  0  0  0  0  0  0  0  0
    4.8210   17.4550    9.5190 N   0  0  0  0  0  0  0  0  0  0  0  0
    5.7130   19.2750    8.4790 O   0  0  0  0  0  0  0  0  0  0  0  0
    8.7090   17.6130    7.8020 C   0  0  0  0  0  0  0  0  0  0  0  0
   11.8650   15.9320    6.0930 N   0  0  0  0  0  0  0  0  0  0  0  0
    8.1420   16.5820    7.5130 O   0  0  0  0  0  0  0  0  0  0  0  0
    7.2360   17.9330    9.8040 C   0  0  1  0  0  0  0  0  0  0  0  0
   10.2760   14.2950    5.9690 O   0  0  0  0  0  0  0  0  0  0  0  0
    7.4420   18.4320   11.2600 C   0  0  0  0  0  0  0  0  0  0  0  0
    6.5190   17.7270   12.2560 C   0  0  0  0  0  0  0  0  0  0  0  0
    7.1970   19.9390   11.3960 C   0  0  0  0  0  0  0  0  0  0  0  0
    5.8670   18.3030    9.1960 C   0  0  0  0  0  0  0  0  0  0  0  0
    3.5350   17.4100    8.7940 C   0  0  0  0  0  0  0  0  0  0  0  0
    3.5160   16.2150    7.8060 C   0  0  0  0  0  0  0  0  0  0  0  0
    4.5090   16.3990    6.6270 C   0  0  0  0  0  0  0  0  0  0  0  0
    3.9660   17.3620    5.5400 C   0  0  0  0  0  0  0  0  0  0  0  0
    5.0960   17.9870    4.6830 C   0  0  0  0  0  0  0  0  0  0  0  0
    6.0860   16.9350    4.1330 C   0  0  0  0  0  0  0  0  0  0  0  0
    7.0300   17.5460    3.0750 C   0  0  0  0  0  0  0  0  0  0  0  0
    8.0160   16.4880    2.5350 C   0  0  0  0  0  0  0  0  0  0  0  0
    9.2250   16.3040    3.4650 C   0  0  0  0  0  0  0  0  0  0  0  0
   10.0530   15.0620    3.0730 C   0  0  0  0  0  0  0  0  0  0  0  0
   11.3500   14.9850    3.9360 C   0  0  0  0  0  0  0  0  0  0  0  0
   11.6870   16.2860    7.4900 C   0  0  1  0  0  0  0  0  0  0  0  0
   11.1050   15.0050    5.4300 C   0  0  0  0  0  0  0  0  0  0  0  0
   13.0040   16.0280    8.2460 C   0  0  0  0  0  0  0  0  0  0  0  0
   13.5360   14.6080    8.1150 C   0  0  0  0  0  0  0  0  0  0  0  0
   12.8230   13.5320    8.6620 C   0  0  0  0  0  0  0  0  0  0  0  0
   13.3100   12.2180    8.5580 C   0  0  0  0  0  0  0  0  0  0  0  0
   14.5240   11.9760    7.8960 C   0  0  0  0  0  0  0  0  0  0  0  0
   15.2540   13.0490    7.3560 C   0  0  0  0  0  0  0  0  0  0  0  0
   14.7600   14.3600    7.4720 C   0  0  0  0  0  0  0  0  0  0  0  0
   15.3240   15.1880    7.0530 H   0  0  0  0  0  0  0  0  0  0  0  0
    8.8090   19.2560    9.0260 H   0  0  0  0  0  0  0  0  0  0  0  0
    9.7650   17.7030    5.9980 H   0  0  0  0  0  0  0  0  0  0  0  0
    5.0790   16.6460   10.0780 H   0  0  0  0  0  0  0  0  0  0  0  0
   12.6220   16.3460    5.5700 H   0  0  0  0  0  0  0  0  0  0  0  0
    7.2110   16.8410    9.8370 H   0  0  0  0  0  0  0  0  0  0  0  0
    8.4810   18.1910   11.5320 H   0  0  0  0  0  0  0  0  0  0  0  0
   11.2670   18.0300    8.6970 H   0  0  0  0  0  0  0  0  0  0  0  0
   12.0850   18.4030    7.2160 H   0  0  0  0  0  0  0  0  0  0  0  0
    6.7670   18.0050   13.2870 H   0  0  0  0  0  0  0  0  0  0  0  0
    7.7550   20.4960   10.6350 H   0  0  0  0  0  0  0  0  0  0  0  0
    3.3740   18.3560    8.2530 H   0  0  0  0  0  0  0  0  0  0  0  0
    2.4980   16.0650    7.4160 H   0  0  0  0  0  0  0  0  0  0  0  0
    4.7290   15.4290    6.1670 H   0  0  0  0  0  0  0  0  0  0  0  0
    3.3960   18.1780    6.0020 H   0  0  0  0  0  0  0  0  0  0  0  0
    5.6480   18.7160    5.2940 H   0  0  0  0  0  0  0  0  0  0  0  0
    5.5340   16.0950    3.6920 H   0  0  0  0  0  0  0  0  0  0  0  0
    7.5750   18.4050    3.4900 H   0  0  0  0  0  0  0  0  0  0  0  0
    8.3600   16.7780    1.5330 H   0  0  0  0  0  0  0  0  0  0  0  0
    8.8720   16.1910    4.5000 H   0  0  0  0  0  0  0  0  0  0  0  0
   10.3050   15.0950    2.0020 H   0  0  0  0  0  0  0  0  0  0  0  0
   12.0190   15.8100    3.6870 H   0  0  0  0  0  0  0  0  0  0  0  0
   10.8910   15.6530    7.9200 H   0  0  0  0  0  0  0  0  0  0  0  0
   12.8450   16.2540    9.3060 H   0  0  0  0  0  0  0  0  0  0  0  0
   11.8860   13.7220    9.1730 H   0  0  0  0  0  0  0  0  0  0  0  0
   12.7460   11.3920    8.9890 H   0  0  0  0  0  0  0  0  0  0  0  0
   14.9000   10.9570    7.8060 H   0  0  0  0  0  0  0  0  0  0  0  0
   16.2010   12.8650    6.8460 H   0  0  0  0  0  0  0  0  0  0  0  0
   13.7570   16.7470    7.9120 H   0  0  0  0  0  0  0  0  0  0  0  0
    9.7260   19.2160    6.8990 H   0  0  0  0  0  0  0  0  0  0  0  0
    6.6080   16.6380   12.1640 H   0  0  0  0  0  0  0  0  0  0  0  0
    7.4670   20.3130   12.3900 H   0  0  0  0  0  0  0  0  0  0  0  0
    2.7120   17.3110    9.5190 H   0  0  0  0  0  0  0  0  0  0  0  0
    3.7650   15.2950    8.3530 H   0  0  0  0  0  0  0  0  0  0  0  0
    5.4830   16.7590    6.9940 H   0  0  0  0  0  0  0  0  0  0  0  0
    3.2560   16.8270    4.8930 H   0  0  0  0  0  0  0  0  0  0  0  0
    4.6540   18.5580    3.8540 H   0  0  0  0  0  0  0  0  0  0  0  0
    6.6770   16.5180    4.9610 H   0  0  0  0  0  0  0  0  0  0  0  0
    6.4280   17.9290    2.2420 H   0  0  0  0  0  0  0  0  0  0  0  0
    7.4930   15.5300    2.4200 H   0  0  0  0  0  0  0  0  0  0  0  0
    9.8520   17.2050    3.4430 H   0  0  0  0  0  0  0  0  0  0  0  0
    9.4500   14.1540    3.2280 H   0  0  0  0  0  0  0  0  0  0  0  0
   11.9040   14.0650    3.7350 H   0  0  0  0  0  0  0  0  0  0  0  0
    6.1390   20.1800   11.2360 H   0  0  0  0  0  0  0  0  0  0  0  0
    5.4650   17.9910   12.0970 H   0  0  0  0  0  0  0  0  0  0  0  0
  1 42  1  0  0  0  0
  2 36  1  0  0  0  0
  2  9  1  0  0  0  0
  3  1  1  0  0  0  0
  3  6  1  0  0  0  0
  4 38  1  0  0  0  0
  5 14  2  0  0  0  0
  6  2  1  0  0  0  0
  7 26  1  0  0  0  0
  8  6  2  0  0  0  0
  9 40  1  1  0  0  0
  9 11  1  0  0  0  0
 11 13  1  0  0  0  0
 11 41  1  0  0  0  0
 11 12  1  0  0  0  0
 12 44  1  0  0  0  0
 13 66  1  0  0  0  0
 14  4  1  0  0  0  0
 14  9  1  0  0  0  0
 15  4  1  0  0  0  0
 15 67  1  0  0  0  0
 16 68  1  0  0  0  0
 16 15  1  0  0  0  0
 17 69  1  0  0  0  0
 17 16  1  0  0  0  0
 18 49  1  0  0  0  0
 18 17  1  0  0  0  0
 19 50  1  0  0  0  0
 19 18  1  0  0  0  0
 20 19  1  0  0  0  0
 20 72  1  0  0  0  0
 21 52  1  0  0  0  0
 21 20  1  0  0  0  0
 22 21  1  0  0  0  0
 22 23  1  0  0  0  0
 23 54  1  0  0  0  0
 24 23  1  0  0  0  0
 24 76  1  0  0  0  0
 24 25  1  0  0  0  0
 25 27  1  0  0  0  0
 26  1  1  0  0  0  0
 26 57  1  1  0  0  0
 26 28  1  0  0  0  0
 27  7  1  0  0  0  0
 27 10  2  0  0  0  0
 28 58  1  0  0  0  0
 29 28  1  0  0  0  0
 29 30  2  0  0  0  0
 30 59  1  0  0  0  0
 31 30  1  0  0  0  0
 31 60  1  0  0  0  0
 32 31  2  0  0  0  0
 33 34  2  0  0  0  0
 33 32  1  0  0  0  0
 34 29  1  0  0  0  0
 35 34  1  0  0  0  0
 37  3  1  0  0  0  0
 39  7  1  0  0  0  0
 43  1  1  0  0  0  0
 45 13  1  0  0  0  0
 46 15  1  0  0  0  0
 47 16  1  0  0  0  0
 48 17  1  0  0  0  0
 51 20  1  0  0  0  0
 53 22  1  0  0  0  0
 55 24  1  0  0  0  0
 56 25  1  0  0  0  0
 61 32  1  0  0  0  0
 62 33  1  0  0  0  0
 63 28  1  0  0  0  0
 64  3  1  0  0  0  0
 65 12  1  0  0  0  0
 70 18  1  0  0  0  0
 71 19  1  0  0  0  0
 73 21  1  0  0  0  0
 74 22  1  0  0  0  0
 75 23  1  0  0  0  0
 77 25  1  0  0  0  0
 78 13  1  0  0  0  0
 79 12  1  0  0  0  0
M  END
>  <IC50_NM>
2000

>  <number_of_rotatable_bonds>
3

>  <charge>
0

>  <lm5_entropy_jk>
30.51387600249522

$$$$
