model36
 OpenBabel11252210453D

 79 80  0  0  1  0  0  0  0  0999 V2000
   11.1040   17.9030    7.6170 C   0  0  0  0  0  0  0  0  0  0  0  0
    8.1420   18.4780    8.8910 N   0  0  0  0  0  0  0  0  0  0  0  0
    9.6930   18.2800    7.0170 C   0  0  0  0  0  0  0  0  0  0  0  0
    4.6360   17.5330    9.5920 N   0  0  0  0  0  0  0  0  0  0  0  0
    5.4200   19.4710    8.6870 O   0  0  0  0  0  0  0  0  0  0  0  0
    8.5370   17.7270    7.8130 C   0  0  0  0  0  0  0  0  0  0  0  0
   11.5630   16.0800    6.0330 N   0  0  0  0  0  0  0  0  0  0  0  0
    8.0180   16.6680    7.5370 O   0  0  0  0  0  0  0  0  0  0  0  0
    7.0460   18.0310    9.8140 C   0  0  1  0  0  0  0  0  0  0  0  0
   10.2460   14.2120    6.0020 O   0  0  0  0  0  0  0  0  0  0  0  0
    7.3470   18.4380   11.2830 C   0  0  0  0  0  0  0  0  0  0  0  0
    6.4720   17.6980   12.3000 C   0  0  0  0  0  0  0  0  0  0  0  0
    7.1560   19.9430   11.5080 C   0  0  0  0  0  0  0  0  0  0  0  0
    5.6390   18.4410    9.3080 C   0  0  0  0  0  0  0  0  0  0  0  0
    3.3590   17.4630    8.8550 C   0  0  0  0  0  0  0  0  0  0  0  0
    3.3740   16.2540    7.8860 C   0  0  0  0  0  0  0  0  0  0  0  0
    4.3880   16.4280    6.7200 C   0  0  0  0  0  0  0  0  0  0  0  0
    3.8310   17.3300    5.5890 C   0  0  0  0  0  0  0  0  0  0  0  0
    4.9360   17.8520    4.6330 C   0  0  0  0  0  0  0  0  0  0  0  0
    5.8800   16.7370    4.1250 C   0  0  0  0  0  0  0  0  0  0  0  0
    6.7210   17.2120    2.9190 C   0  0  0  0  0  0  0  0  0  0  0  0
    7.7370   16.1400    2.4660 C   0  0  0  0  0  0  0  0  0  0  0  0
    9.0030   16.1430    3.3470 C   0  0  0  0  0  0  0  0  0  0  0  0
    9.8840   14.9060    3.0690 C   0  0  0  0  0  0  0  0  0  0  0  0
   11.1840   14.9600    3.9270 C   0  0  0  0  0  0  0  0  0  0  0  0
   11.4780   16.4050    7.4440 C   0  0  1  0  0  0  0  0  0  0  0  0
   10.9430   15.0230    5.4210 C   0  0  0  0  0  0  0  0  0  0  0  0
   12.8390   16.1370    8.1180 C   0  0  0  0  0  0  0  0  0  0  0  0
   13.4120   14.7500    7.8670 C   0  0  0  0  0  0  0  0  0  0  0  0
   12.8020   13.6190    8.4290 C   0  0  0  0  0  0  0  0  0  0  0  0
   13.3310   12.3360    8.2120 C   0  0  0  0  0  0  0  0  0  0  0  0
   14.4890   12.1820    7.4320 C   0  0  0  0  0  0  0  0  0  0  0  0
   15.1170   13.3090    6.8770 C   0  0  0  0  0  0  0  0  0  0  0  0
   14.5750   14.5900    7.0960 C   0  0  0  0  0  0  0  0  0  0  0  0
   15.0550   15.4610    6.6600 H   0  0  0  0  0  0  0  0  0  0  0  0
    8.5840   19.3850    9.0150 H   0  0  0  0  0  0  0  0  0  0  0  0
    9.5690   17.8870    6.0010 H   0  0  0  0  0  0  0  0  0  0  0  0
    4.9440   16.6920   10.0760 H   0  0  0  0  0  0  0  0  0  0  0  0
   12.1880   16.6290    5.4580 H   0  0  0  0  0  0  0  0  0  0  0  0
    7.0070   16.9390    9.7880 H   0  0  0  0  0  0  0  0  0  0  0  0
    8.3950   18.1600   11.4800 H   0  0  0  0  0  0  0  0  0  0  0  0
   11.1340   18.1490    8.6880 H   0  0  0  0  0  0  0  0  0  0  0  0
   11.9000   18.5160    7.1770 H   0  0  0  0  0  0  0  0  0  0  0  0
    6.7570   17.9550   13.3280 H   0  0  0  0  0  0  0  0  0  0  0  0
    7.7180   20.5240   10.7670 H   0  0  0  0  0  0  0  0  0  0  0  0
    3.1900   18.3970    8.2950 H   0  0  0  0  0  0  0  0  0  0  0  0
    2.3650   16.0850    7.4820 H   0  0  0  0  0  0  0  0  0  0  0  0
    4.6400   15.4450    6.3040 H   0  0  0  0  0  0  0  0  0  0  0  0
    3.3110   18.1960    6.0190 H   0  0  0  0  0  0  0  0  0  0  0  0
    5.5310   18.6170    5.1520 H   0  0  0  0  0  0  0  0  0  0  0  0
    5.2990   15.8510    3.8400 H   0  0  0  0  0  0  0  0  0  0  0  0
    7.2350   18.1540    3.1520 H   0  0  0  0  0  0  0  0  0  0  0  0
    8.0190   16.3160    1.4190 H   0  0  0  0  0  0  0  0  0  0  0  0
    8.7160   16.1570    4.4080 H   0  0  0  0  0  0  0  0  0  0  0  0
   10.1310   14.8500    1.9990 H   0  0  0  0  0  0  0  0  0  0  0  0
   11.7950   15.8180    3.6380 H   0  0  0  0  0  0  0  0  0  0  0  0
   10.7030   15.7720    7.9090 H   0  0  0  0  0  0  0  0  0  0  0  0
   12.7310   16.2910    9.1980 H   0  0  0  0  0  0  0  0  0  0  0  0
   11.9100   13.7420    9.0330 H   0  0  0  0  0  0  0  0  0  0  0  0
   12.8430   11.4650    8.6480 H   0  0  0  0  0  0  0  0  0  0  0  0
   14.8990   11.1870    7.2600 H   0  0  0  0  0  0  0  0  0  0  0  0
   16.0190   13.1910    6.2760 H   0  0  0  0  0  0  0  0  0  0  0  0
   13.5510   16.9000    7.7940 H   0  0  0  0  0  0  0  0  0  0  0  0
    9.5500   19.3620    6.9520 H   0  0  0  0  0  0  0  0  0  0  0  0
    6.5740   16.6120   12.1900 H   0  0  0  0  0  0  0  0  0  0  0  0
    7.4580   20.2540   12.5150 H   0  0  0  0  0  0  0  0  0  0  0  0
    2.5280   17.3650    9.5710 H   0  0  0  0  0  0  0  0  0  0  0  0
    3.6220   15.3450    8.4530 H   0  0  0  0  0  0  0  0  0  0  0  0
    5.3440   16.8290    7.0870 H   0  0  0  0  0  0  0  0  0  0  0  0
    3.0730   16.7770    5.0150 H   0  0  0  0  0  0  0  0  0  0  0  0
    4.4660   18.3630    3.7820 H   0  0  0  0  0  0  0  0  0  0  0  0
    6.5420   16.4250    4.9460 H   0  0  0  0  0  0  0  0  0  0  0  0
    6.0440   17.4290    2.0830 H   0  0  0  0  0  0  0  0  0  0  0  0
    7.2600   15.1510    2.4890 H   0  0  0  0  0  0  0  0  0  0  0  0
    9.5770   17.0640    3.1700 H   0  0  0  0  0  0  0  0  0  0  0  0
    9.3270   13.9880    3.3080 H   0  0  0  0  0  0  0  0  0  0  0  0
   11.7920   14.0650    3.7630 H   0  0  0  0  0  0  0  0  0  0  0  0
    6.1030   20.2270   11.3900 H   0  0  0  0  0  0  0  0  0  0  0  0
    5.4100   17.9500   12.1860 H   0  0  0  0  0  0  0  0  0  0  0  0
  1 42  1  0  0  0  0
  2 36  1  0  0  0  0
  2  9  1  0  0  0  0
  3  1  1  0  0  0  0
  3  6  1  0  0  0  0
  4 38  1  0  0  0  0
  5 14  2  0  0  0  0
  6  2  1  0  0  0  0
  7 26  1  0  0  0  0
  8  6  2  0  0  0  0
  9 40  1  1  0  0  0
  9 11  1  0  0  0  0
 11 13  1  0  0  0  0
 11 41  1  0  0  0  0
 11 12  1  0  0  0  0
 12 44  1  0  0  0  0
 13 66  1  0  0  0  0
 14  4  1  0  0  0  0
 14  9  1  0  0  0  0
 15  4  1  0  0  0  0
 15 67  1  0  0  0  0
 16 68  1  0  0  0  0
 16 15  1  0  0  0  0
 17 69  1  0  0  0  0
 17 16  1  0  0  0  0
 18 49  1  0  0  0  0
 18 17  1  0  0  0  0
 19 50  1  0  0  0  0
 19 18  1  0  0  0  0
 20 19  1  0  0  0  0
 20 72  1  0  0  0  0
 21 52  1  0  0  0  0
 21 20  1  0  0  0  0
 22 21  1  0  0  0  0
 22 23  1  0  0  0  0
 23 54  1  0  0  0  0
 24 23  1  0  0  0  0
 24 76  1  0  0  0  0
 24 25  1  0  0  0  0
 25 27  1  0  0  0  0
 26  1  1  0  0  0  0
 26 57  1  1  0  0  0
 26 28  1  0  0  0  0
 27  7  1  0  0  0  0
 27 10  2  0  0  0  0
 28 58  1  0  0  0  0
 29 28  1  0  0  0  0
 29 30  2  0  0  0  0
 30 59  1  0  0  0  0
 31 30  1  0  0  0  0
 31 60  1  0  0  0  0
 32 31  2  0  0  0  0
 33 34  2  0  0  0  0
 33 32  1  0  0  0  0
 34 29  1  0  0  0  0
 35 34  1  0  0  0  0
 37  3  1  0  0  0  0
 39  7  1  0  0  0  0
 43  1  1  0  0  0  0
 45 13  1  0  0  0  0
 46 15  1  0  0  0  0
 47 16  1  0  0  0  0
 48 17  1  0  0  0  0
 51 20  1  0  0  0  0
 53 22  1  0  0  0  0
 55 24  1  0  0  0  0
 56 25  1  0  0  0  0
 61 32  1  0  0  0  0
 62 33  1  0  0  0  0
 63 28  1  0  0  0  0
 64  3  1  0  0  0  0
 65 12  1  0  0  0  0
 70 18  1  0  0  0  0
 71 19  1  0  0  0  0
 73 21  1  0  0  0  0
 74 22  1  0  0  0  0
 75 23  1  0  0  0  0
 77 25  1  0  0  0  0
 78 13  1  0  0  0  0
 79 12  1  0  0  0  0
M  END
>  <IC50_NM>
2000

>  <number_of_rotatable_bonds>
3

>  <charge>
0

>  <lm5_entropy_jk>
30.51387600249522

$$$$
