untitled
  ChemPy            3D                             0

 15 16  0  0  1  0  0  0  0  0999 V2000
   23.4770    6.9310   18.2050 C   0  0  0  0  0  0  0  0  0  0  0  0
   23.1800    6.3370   19.4480 C   0  0  0  0  0  0  0  0  0  0  0  0
   22.2220    6.9790   20.3250 C   0  0  0  0  0  0  0  0  0  0  0  0
   21.5680    8.1640   19.9500 C   0  0  0  0  0  0  0  0  0  0  0  0
   21.8340    8.6810   18.6990 C   0  0  0  0  0  0  0  0  0  0  0  0
   22.7870    8.0710   17.8400 C   0  0  0  0  0  0  0  0  0  0  0  0
   23.6480    5.1610   20.0560 N   0  0  0  0  0  0  0  0  0  0  0  0
   23.0170    5.0680   21.2420 C   0  0  0  0  0  0  0  0  0  0  0  0
   22.1530    6.1700   21.4640 N   0  0  0  0  0  0  0  0  0  0  0  0
   24.9610    6.0490   16.9830 I   0  0  0  0  0  0  0  0  0  0  0  0
   23.1720    8.9210   15.9460 I   0  0  0  0  0  0  0  0  0  0  0  0
   20.8050   10.4290   18.0860 I   0  0  0  0  0  0  0  0  0  0  0  0
   20.2610    9.0000   21.3850 I   0  0  0  0  0  0  0  0  0  0  0  0
   21.5230    6.3000   22.2590 H   0  0  0  0  0  0  0  0  0  0  0  0
   23.1120    4.2720   21.9830 H   0  0  0  0  0  0  0  0  0  0  0  0
  1  2  2  0  0  0  0
  1  6  1  0  0  0  0
  1 10  1  0  0  0  0
  2  3  1  0  0  0  0
  2  7  1  0  0  0  0
  3  4  2  0  0  0  0
  3  9  1  0  0  0  0
  4  5  1  0  0  0  0
  4 13  1  0  0  0  0
  5  6  2  0  0  0  0
  5 12  1  0  0  0  0
  6 11  1  0  0  0  0
  7  8  2  0  0  0  0
  8  9  1  0  0  0  0
  8 15  1  0  0  0  0
  9 14  1  0  0  0  0
M  END
>  <charge>
0

>  <Ki_NM>
23

>  <number_of_rotatable_bonds>
0

>  <lm5_entropy_jk>
7.2278

$$$$
