1US0.pdb
 OpenBabel11252210453D

 35 36  0  0  0  0  0  0  0  0999 V2000
   15.3030   -9.7360   18.4620 C   0  0  0  0  0  0  0  0  0  0  0  0
   15.8780  -11.1740   16.1100 C   0  0  0  0  0  0  0  0  0  0  0  0
   16.1380   -9.1820   17.4780 C   0  0  0  0  0  0  0  0  0  0  0  0
   14.8190  -11.0200   18.2470 C   0  0  0  0  0  0  0  0  0  0  0  0
   15.0740  -11.7570   17.0910 C   0  0  0  0  0  0  0  0  0  0  0  0
   16.4300   -9.8890   16.2670 C   0  0  0  0  0  0  0  0  0  0  0  0
   15.5270   -3.7020    9.9490 Br  0  0  0  0  0  0  0  0  0  0  0  0
   14.0990  -11.5830   19.2170 F   0  0  0  0  0  0  0  0  0  0  0  0
   17.3150   -9.3370   15.2280 C   0  0  0  0  0  0  0  0  0  0  0  0
   18.3350   -7.2510   14.2560 C   0  0  0  0  0  0  0  0  0  0  0  0
   19.5770   -5.0790   12.9120 F   0  0  0  0  0  0  0  0  0  0  0  0
   16.7770   -8.0000   17.5820 O   0  0  0  0  0  0  0  0  0  0  0  0
   18.1490  -10.4810   14.2710 S   0  0  0  0  0  0  0  0  0  0  0  0
   17.3900   -7.9830   15.1290 N   0  0  0  0  0  0  0  0  0  0  0  0
   16.6320   -7.1190   18.7420 C   0  0  0  0  0  0  0  0  0  0  0  0
   17.6290   -6.3800   13.2390 C   0  0  0  0  0  0  0  0  0  0  0  0
   16.3990   -4.7950   11.2640 C   0  0  0  0  0  0  0  0  0  0  0  0
   16.2890   -6.5780   12.8810 C   0  0  0  0  0  0  0  0  0  0  0  0
   18.3090   -5.3360   12.5820 C   0  0  0  0  0  0  0  0  0  0  0  0
   17.7320   -4.5390   11.5910 C   0  0  0  0  0  0  0  0  0  0  0  0
   15.6700   -5.8000   11.8950 C   0  0  0  0  0  0  0  0  0  0  0  0
   15.5460   -6.0230   18.4300 C   0  0  0  0  0  0  0  0  0  0  0  0
   15.0470   -5.4940   19.4430 O   0  0  0  0  0  0  0  0  0  0  0  0
   15.2650   -5.7910   17.2470 O   0  5  0  0  0  0  0  0  0  0  0  0
   16.4000   -7.7000   19.6470 H   0  0  0  0  0  0  0  0  0  0  0  0
   17.6630   -6.7040   18.7920 H   0  0  0  0  0  0  0  0  0  0  0  0
   18.9770   -6.6080   14.9270 H   0  0  0  0  0  0  0  0  0  0  0  0
   19.0120   -7.9730   13.7190 H   0  0  0  0  0  0  0  0  0  0  0  0
   14.6690  -12.7600   16.9500 H   0  0  0  0  0  0  0  0  0  0  0  0
   16.0600  -11.7580   15.1980 H   0  0  0  0  0  0  0  0  0  0  0  0
   14.6180   -5.9690   11.6420 H   0  0  0  0  0  0  0  0  0  0  0  0
   18.2820   -3.7220   11.1170 H   0  0  0  0  0  0  0  0  0  0  0  0
   15.7010   -7.3500   13.3830 H   0  0  0  0  0  0  0  0  0  0  0  0
   15.0880   -9.2070   19.3840 H   0  0  0  0  0  0  0  0  0  0  0  0
   16.8520   -7.3650   15.7720 H   0  0  0  0  0  0  0  0  0  0  0  0
  1 34  1  0  0  0  0
  2  6  2  0  0  0  0
  2  5  1  0  0  0  0
  3 12  1  0  0  0  0
  3  1  2  0  0  0  0
  4  1  1  0  0  0  0
  4  8  1  0  0  0  0
  5  4  2  0  0  0  0
  6  3  1  0  0  0  0
  7 17  1  0  0  0  0
  9 14  1  0  0  0  0
  9  6  1  0  0  0  0
 10 27  1  0  0  0  0
 10 14  1  0  0  0  0
 12 15  1  0  0  0  0
 13  9  2  0  0  0  0
 14 35  1  0  0  0  0
 15 26  1  0  0  0  0
 15 25  1  0  0  0  0
 16 10  1  0  0  0  0
 17 20  2  0  0  0  0
 17 21  1  0  0  0  0
 18 16  1  0  0  0  0
 18 33  1  0  0  0  0
 19 11  1  0  0  0  0
 19 16  2  0  0  0  0
 20 19  1  0  0  0  0
 21 18  2  0  0  0  0
 22 15  1  0  0  0  0
 22 23  2  0  0  0  0
 24 22  1  0  0  0  0
 28 10  1  0  0  0  0
 29  5  1  0  0  0  0
 30  2  1  0  0  0  0
 31 21  1  0  0  0  0
 32 20  1  0  0  0  0
M  CHG  1  24  -1
M  END
>  <lm5_entropy_jk>
26.450573499596743

>  <number_of_rotatable_bonds>
7

>  <deltaG_kcalmol>
-9.56

>  <charge>
-1

$$$$
