3qxp.pdb
 OpenBabel11252210453D

 41 43  0  0  0  0  0  0  0  0999 V2000
   65.9350  154.4200  -50.5300 N   0  0  0  0  0  0  0  0  0  0  0  0
   64.5740  154.9170  -48.6490 N   0  0  0  0  0  0  0  0  0  0  0  0
   67.4810  153.5250  -52.1380 N   0  0  0  0  0  0  0  0  0  0  0  0
   62.0890  152.8600  -42.7300 N   0  0  0  0  0  0  0  0  0  0  0  0
   71.0510  150.8120  -49.1020 N   0  3  0  0  0  0  0  0  0  0  0  0
   67.5200  152.7290  -49.8360 C   0  0  0  0  0  0  0  0  0  0  0  0
   67.0210  153.5570  -50.8690 C   0  0  0  0  0  0  0  0  0  0  0  0
   65.6160  154.2220  -49.2320 C   0  0  0  0  0  0  0  0  0  0  0  0
   63.8760  154.5950  -47.4450 C   0  0  0  0  0  0  0  0  0  0  0  0
   68.3850  151.6070  -49.9950 C   0  0  0  0  0  0  0  0  0  0  0  0
   68.5700  150.7000  -48.7970 C   0  0  0  0  0  0  0  0  0  0  0  0
   69.8510  150.2990  -48.3850 C   0  0  0  0  0  0  0  0  0  0  0  0
   70.0300  149.4350  -47.2980 C   0  0  0  0  0  0  0  0  0  0  0  0
   68.9110  148.9750  -46.6000 C   0  0  0  0  0  0  0  0  0  0  0  0
   67.6310  149.3590  -47.0000 C   0  0  0  0  0  0  0  0  0  0  0  0
   67.4630  150.1990  -48.1060 C   0  0  0  0  0  0  0  0  0  0  0  0
   64.0530  153.4220  -46.6990 C   0  0  0  0  0  0  0  0  0  0  0  0
   63.2910  153.2240  -45.5430 C   0  0  0  0  0  0  0  0  0  0  0  0
   62.3350  154.1600  -45.1370 C   0  0  0  0  0  0  0  0  0  0  0  0
   62.1670  155.3360  -45.8840 C   0  0  0  0  0  0  0  0  0  0  0  0
   62.9260  155.5560  -47.0260 C   0  0  0  0  0  0  0  0  0  0  0  0
   68.9530  151.3330  -51.0460 O   0  0  0  0  0  0  0  0  0  0  0  0
   60.1290  153.0920  -44.4400 O   0  0  0  0  0  0  0  0  0  0  0  0
   60.8820  155.0390  -43.0960 O   0  0  0  0  0  0  0  0  0  0  0  0
   71.9030  150.0070  -49.4330 O   0  5  0  0  0  0  0  0  0  0  0  0
   71.1160  152.0140  -49.2830 O   0  0  0  0  0  0  0  0  0  0  0  0
   66.7300  153.0760  -48.3410 S   0  0  0  0  0  0  0  0  0  0  0  0
   61.2470  153.8270  -43.8430 S   0  0  0  0  0  0  0  0  0  0  0  0
   64.0010  155.5260  -49.2940 H   0  0  0  0  0  0  0  0  0  0  0  0
   67.0790  154.1350  -52.8750 H   0  0  0  0  0  0  0  0  0  0  0  0
   68.2440  152.8810  -52.3870 H   0  0  0  0  0  0  0  0  0  0  0  0
   62.1910  151.8390  -42.9890 H   0  0  0  0  0  0  0  0  0  0  0  0
   61.9430  152.9760  -41.7190 H   0  0  0  0  0  0  0  0  0  0  0  0
   71.0170  149.1020  -46.9770 H   0  0  0  0  0  0  0  0  0  0  0  0
   69.0290  148.3020  -45.7440 H   0  0  0  0  0  0  0  0  0  0  0  0
   66.7570  149.0120  -46.4400 H   0  0  0  0  0  0  0  0  0  0  0  0
   66.4430  150.4430  -48.4040 H   0  0  0  0  0  0  0  0  0  0  0  0
   64.7460  152.6320  -46.9870 H   0  0  0  0  0  0  0  0  0  0  0  0
   63.4720  152.3070  -44.9680 H   0  0  0  0  0  0  0  0  0  0  0  0
   61.4340  156.1010  -45.5930 H   0  0  0  0  0  0  0  0  0  0  0  0
   62.7640  156.4640  -47.6100 H   0  0  0  0  0  0  0  0  0  0  0  0
  1  8  2  0  0  0  0
  2  9  1  0  0  0  0
  2 29  1  0  0  0  0
  3  7  1  0  0  0  0
  3 30  1  0  0  0  0
  3 31  1  0  0  0  0
  4 32  1  0  0  0  0
  4 33  1  0  0  0  0
  5 12  1  0  0  0  0
  6 27  1  0  0  0  0
  7  1  1  0  0  0  0
  7  6  2  0  0  0  0
  8  2  1  0  0  0  0
  8 27  1  0  0  0  0
  9 21  2  0  0  0  0
  9 17  1  0  0  0  0
 10  6  1  0  0  0  0
 10 11  1  0  0  0  0
 11 16  2  0  0  0  0
 11 12  1  0  0  0  0
 12 13  2  0  0  0  0
 13 14  1  0  0  0  0
 13 34  1  0  0  0  0
 14 35  1  0  0  0  0
 15 14  2  0  0  0  0
 15 36  1  0  0  0  0
 16 15  1  0  0  0  0
 16 37  1  0  0  0  0
 17 18  2  0  0  0  0
 17 38  1  0  0  0  0
 18 19  1  0  0  0  0
 18 39  1  0  0  0  0
 19 28  1  0  0  0  0
 20 19  2  0  0  0  0
 20 40  1  0  0  0  0
 21 20  1  0  0  0  0
 21 41  1  0  0  0  0
 22 10  2  0  0  0  0
 23 28  2  0  0  0  0
 25  5  1  0  0  0  0
 26  5  2  0  0  0  0
 28 24  2  0  0  0  0
 28  4  1  0  0  0  0
M  CHG  2   5   1  25  -1
M  END
>  <lm5_entropy_jk>
23.933690845995674

>  <number_of_rotatable_bonds>
6

>  <IC50_NM>
20

>  <charge>
0

$$$$
