3RNI
 OpenBabel11252210453D

 39 41  0  0  0  0  0  0  0  0999 V2000
   65.5720  154.5290  -50.1750 N   0  0  0  0  0  0  0  0  0  0  0  0
   64.1660  154.9050  -48.3500 N   0  0  0  0  0  0  0  0  0  0  0  0
   67.0470  153.7330  -51.7850 N   0  0  0  0  0  0  0  0  0  0  0  0
   60.8980  157.9420  -45.5260 N   0  0  0  0  0  0  0  0  0  0  0  0
   67.1600  152.9390  -49.5480 C   0  0  0  0  0  0  0  0  0  0  0  0
   66.6480  153.7440  -50.5140 C   0  0  0  0  0  0  0  0  0  0  0  0
   65.2400  154.2760  -48.9200 C   0  0  0  0  0  0  0  0  0  0  0  0
   68.2820  152.0140  -49.7620 C   0  0  0  0  0  0  0  0  0  0  0  0
   63.4940  154.7420  -47.1320 C   0  0  0  0  0  0  0  0  0  0  0  0
   68.5700  150.9750  -48.7010 C   0  0  0  0  0  0  0  0  0  0  0  0
   62.8770  155.8450  -46.5020 C   0  0  0  0  0  0  0  0  0  0  0  0
   62.2020  155.6850  -45.2550 C   0  0  0  0  0  0  0  0  0  0  0  0
   62.1260  154.4080  -44.6610 C   0  0  0  0  0  0  0  0  0  0  0  0
   62.7260  153.3170  -45.3010 C   0  0  0  0  0  0  0  0  0  0  0  0
   63.3970  153.4770  -46.5250 C   0  0  0  0  0  0  0  0  0  0  0  0
   67.5360  150.2120  -48.1160 C   0  0  0  0  0  0  0  0  0  0  0  0
   67.8190  149.2220  -47.1620 C   0  0  0  0  0  0  0  0  0  0  0  0
   69.1460  148.9580  -46.8010 C   0  0  0  0  0  0  0  0  0  0  0  0
   70.1870  149.6830  -47.4000 C   0  0  0  0  0  0  0  0  0  0  0  0
   69.9030  150.6870  -48.3460 C   0  0  0  0  0  0  0  0  0  0  0  0
   68.9530  152.0620  -50.7800 O   0  0  0  0  0  0  0  0  0  0  0  0
   60.2320  156.7520  -43.6600 O   0  0  0  0  0  0  0  0  0  0  0  0
   62.4440  158.0420  -43.8890 O   0  0  0  0  0  0  0  0  0  0  0  0
   66.2470  153.1120  -48.0830 S   0  0  0  0  0  0  0  0  0  0  0  0
   61.4700  157.0720  -44.3800 S   0  0  0  0  0  0  0  0  0  0  0  0
   63.7020  155.5140  -49.0220 H   0  0  0  0  0  0  0  0  0  0  0  0
   66.7340  154.4260  -52.4520 H   0  0  0  0  0  0  0  0  0  0  0  0
   67.8910  153.1980  -51.9470 H   0  0  0  0  0  0  0  0  0  0  0  0
   61.4090  158.6350  -44.9790 H   0  0  0  0  0  0  0  0  0  0  0  0
   60.0520  157.7700  -44.9830 H   0  0  0  0  0  0  0  0  0  0  0  0
   62.9370  156.8200  -46.9890 H   0  0  0  0  0  0  0  0  0  0  0  0
   61.6240  154.2440  -43.7000 H   0  0  0  0  0  0  0  0  0  0  0  0
   62.6870  152.3360  -44.8320 H   0  0  0  0  0  0  0  0  0  0  0  0
   63.8270  152.6030  -47.0020 H   0  0  0  0  0  0  0  0  0  0  0  0
   66.5060  150.3770  -48.4130 H   0  0  0  0  0  0  0  0  0  0  0  0
   67.0100  148.6500  -46.7100 H   0  0  0  0  0  0  0  0  0  0  0  0
   69.3660  148.1790  -46.0700 H   0  0  0  0  0  0  0  0  0  0  0  0
   71.2140  149.4520  -47.1370 H   0  0  0  0  0  0  0  0  0  0  0  0
   70.7140  151.2430  -48.8160 H   0  0  0  0  0  0  0  0  0  0  0  0
  1  7  2  0  0  0  0
  2  9  1  0  0  0  0
  2 26  1  0  0  0  0
  3  6  1  0  0  0  0
  3 27  1  0  0  0  0
  3 28  1  0  0  0  0
  4 25  1  0  0  0  0
  4 29  1  0  0  0  0
  4 30  1  0  0  0  0
  5 24  1  0  0  0  0
  6  1  1  0  0  0  0
  6  5  2  0  0  0  0
  7  2  1  0  0  0  0
  7 24  1  0  0  0  0
  8  5  1  0  0  0  0
  8 10  1  0  0  0  0
  9 11  2  0  0  0  0
  9 15  1  0  0  0  0
 10 20  2  0  0  0  0
 10 16  1  0  0  0  0
 11 12  1  0  0  0  0
 11 31  1  0  0  0  0
 12 25  1  0  0  0  0
 12 13  2  0  0  0  0
 13 32  1  0  0  0  0
 14 13  1  0  0  0  0
 14 33  1  0  0  0  0
 15 14  2  0  0  0  0
 15 34  1  0  0  0  0
 16 17  2  0  0  0  0
 16 35  1  0  0  0  0
 17 18  1  0  0  0  0
 17 36  1  0  0  0  0
 18 37  1  0  0  0  0
 19 18  2  0  0  0  0
 19 38  1  0  0  0  0
 20 19  1  0  0  0  0
 20 39  1  0  0  0  0
 21  8  2  0  0  0  0
 25 22  2  0  0  0  0
 25 23  2  0  0  0  0
M  END
>  <lm5_entropy_jk>
22.397995528352578

>  <number_of_rotatable_bonds>
5

>  <IC50_NM>
6700

>  <charge>
0

$$$$
