6rly.pdb
 OpenBabel11252210453D

 46 48  0  0  0  0  0  0  0  0999 V2000
    7.7180   29.1310    5.4320 N   0  0  0  0  0  0  0  0  0  0  0  0
    7.0430   28.0260    4.7230 C   0  0  0  0  0  0  0  0  0  0  0  0
    1.3830   22.6730    8.3620 C   0  0  0  0  0  0  0  0  0  0  0  0
    0.0830   22.6000    8.8650 C   0  0  0  0  0  0  0  0  0  0  0  0
   -1.0110   22.9170    8.0550 C   0  0  0  0  0  0  0  0  0  0  0  0
   -0.7950   23.3010    6.7300 C   0  0  0  0  0  0  0  0  0  0  0  0
    0.5010   23.3420    6.2100 C   0  0  0  0  0  0  0  0  0  0  0  0
    1.6090   23.0330    7.0200 C   0  0  0  0  0  0  0  0  0  0  0  0
    2.9870   23.1230    6.4880 C   0  0  0  0  0  0  0  0  0  0  0  0
    4.0440   22.4000    7.0750 C   0  0  0  0  0  0  0  0  0  0  0  0
    5.3560   22.5910    6.6530 C   0  0  0  0  0  0  0  0  0  0  0  0
    5.6620   23.4430    5.5720 C   0  0  0  0  0  0  0  0  0  0  0  0
    4.6020   24.0940    4.9360 C   0  0  0  0  0  0  0  0  0  0  0  0
    3.2910   23.9630    5.4070 C   0  0  0  0  0  0  0  0  0  0  0  0
    7.1200   23.6100    5.2300 C   0  0  0  0  0  0  0  0  0  0  0  0
    7.4970   24.3200    3.9160 C   0  0  0  0  0  0  0  0  0  0  0  0
    8.5620   31.4600    6.7890 C   0  0  0  0  0  0  0  0  0  0  0  0
    7.9190   30.3840    7.4810 C   0  0  0  0  0  0  0  0  0  0  0  0
    7.5220   29.2570    6.8230 C   0  0  0  0  0  0  0  0  0  0  0  0
    8.4310   30.1080    4.6910 C   0  0  0  0  0  0  0  0  0  0  0  0
    8.8420   31.3060    5.4650 C   0  0  0  0  0  0  0  0  0  0  0  0
    7.9050   26.7640    4.5210 C   0  0  0  0  0  0  0  0  0  0  0  0
    9.0810   26.6480    4.8000 O   0  0  0  0  0  0  0  0  0  0  0  0
    7.1610   25.7620    3.8780 N   0  0  0  0  0  0  0  0  0  0  0  0
    8.6460   29.9600    3.4940 O   0  0  0  0  0  0  0  0  0  0  0  0
    9.5450   32.2810    4.8110 O   0  0  0  0  0  0  0  0  0  0  0  0
    6.1100   27.7340    5.2870 H   0  0  0  0  0  0  0  0  0  0  0  0
    6.6900   28.3860    3.7050 H   0  0  0  0  0  0  0  0  0  0  0  0
    2.2190   22.4580    9.0310 H   0  0  0  0  0  0  0  0  0  0  0  0
   -0.0860   22.3160    9.9040 H   0  0  0  0  0  0  0  0  0  0  0  0
   -2.0240   22.8780    8.4610 H   0  0  0  0  0  0  0  0  0  0  0  0
   -1.6390   23.5830    6.1000 H   0  0  0  0  0  0  0  0  0  0  0  0
    0.6340   23.6230    5.1620 H   0  0  0  0  0  0  0  0  0  0  0  0
    3.8530   21.6910    7.8830 H   0  0  0  0  0  0  0  0  0  0  0  0
    6.1650   22.0960    7.1900 H   0  0  0  0  0  0  0  0  0  0  0  0
    4.7510   24.7150    4.0570 H   0  0  0  0  0  0  0  0  0  0  0  0
    2.5120   24.5480    4.9090 H   0  0  0  0  0  0  0  0  0  0  0  0
    7.5940   24.1450    6.0880 H   0  0  0  0  0  0  0  0  0  0  0  0
    7.5680   22.5810    5.1440 H   0  0  0  0  0  0  0  0  0  0  0  0
    8.6000   24.1910    3.7440 H   0  0  0  0  0  0  0  0  0  0  0  0
    6.9520   23.8160    3.0730 H   0  0  0  0  0  0  0  0  0  0  0  0
    8.8100   32.3700    7.3440 H   0  0  0  0  0  0  0  0  0  0  0  0
    7.7440   30.4870    8.5570 H   0  0  0  0  0  0  0  0  0  0  0  0
    7.0390   28.4270    7.3500 H   0  0  0  0  0  0  0  0  0  0  0  0
    6.1660   25.9550    3.6890 H   0  0  0  0  0  0  0  0  0  0  0  0
    9.4790   32.1770    3.8080 H   0  0  0  0  0  0  0  0  0  0  0  0
  1 20  1  0  0  0  0
  1  2  1  0  0  0  0
  1 19  1  0  0  0  0
  2 22  1  0  0  0  0
  2 27  1  0  0  0  0
  2 28  1  0  0  0  0
  3  8  2  0  0  0  0
  3  4  1  0  0  0  0
  3 29  1  0  0  0  0
  4  5  2  0  0  0  0
  4 30  1  0  0  0  0
  5  6  1  0  0  0  0
  5 31  1  0  0  0  0
  6  7  2  0  0  0  0
  6 32  1  0  0  0  0
  7  8  1  0  0  0  0
  7 33  1  0  0  0  0
  8  9  1  0  0  0  0
  9 14  2  0  0  0  0
  9 10  1  0  0  0  0
 10 11  2  0  0  0  0
 10 34  1  0  0  0  0
 11 12  1  0  0  0  0
 11 35  1  0  0  0  0
 12 13  2  0  0  0  0
 12 15  1  0  0  0  0
 13 14  1  0  0  0  0
 13 36  1  0  0  0  0
 14 37  1  0  0  0  0
 15 16  1  0  0  0  0
 15 38  1  0  0  0  0
 15 39  1  0  0  0  0
 16 24  1  0  0  0  0
 16 40  1  0  0  0  0
 16 41  1  0  0  0  0
 17 21  2  0  0  0  0
 17 18  1  0  0  0  0
 17 42  1  0  0  0  0
 18 19  2  0  0  0  0
 18 43  1  0  0  0  0
 19 44  1  0  0  0  0
 20 25  2  0  0  0  0
 20 21  1  0  0  0  0
 21 26  1  0  0  0  0
 22 24  1  0  0  0  0
 22 23  2  0  0  0  0
 24 45  1  0  0  0  0
 26 46  1  0  0  0  0
M  END
>  <COMPND>
6rly.pdb

>  <AUTHOR>
GENERATED BY OPEN BABEL 2.3.1

>  <MASTER>
0    0    0    0    0    0    0    0   46    0   46    0

>  <lm5_entropy_jk>
25.46788887432381

>  <number_of_rotatable_bonds>
7

>  <deltaG_kcalmol>
-6.50

>  <charge>
0

$$$$
