3QQK
 OpenBabel11252210453D

 31 32  0  0  0  0  0  0  0  0999 V2000
   62.7510  153.4720  -45.9930 C   0  0  0  0  0  0  0  0  0  0  0  0
   63.0190  154.0420  -47.1650 C   0  0  0  0  0  0  0  0  0  0  0  0
   64.0840  155.0990  -47.2980 C   0  0  0  0  0  0  0  0  0  0  0  0
   64.5740  155.2980  -48.6840 N   0  0  0  0  0  0  0  0  0  0  0  0
   65.4890  154.4430  -49.2520 C   0  0  0  0  0  0  0  0  0  0  0  0
   65.8520  154.5330  -50.5510 N   0  0  0  0  0  0  0  0  0  0  0  0
   66.9170  153.6200  -50.7980 C   0  0  0  0  0  0  0  0  0  0  0  0
   67.3670  152.8460  -49.7020 C   0  0  0  0  0  0  0  0  0  0  0  0
   66.4260  153.1840  -48.2910 S   0  0  0  0  0  0  0  0  0  0  0  0
   67.4140  153.5040  -52.0560 N   0  0  0  0  0  0  0  0  0  0  0  0
   68.3730  151.8320  -49.7570 C   0  0  0  0  0  0  0  0  0  0  0  0
   68.5370  150.8970  -48.5930 C   0  0  0  0  0  0  0  0  0  0  0  0
   67.4390  150.1910  -48.0870 C   0  0  0  0  0  0  0  0  0  0  0  0
   67.6210  149.2550  -47.0650 C   0  0  0  0  0  0  0  0  0  0  0  0
   68.9000  149.0010  -46.5660 C   0  0  0  0  0  0  0  0  0  0  0  0
   69.9980  149.7010  -47.0760 C   0  0  0  0  0  0  0  0  0  0  0  0
   69.8200  150.6590  -48.0780 C   0  0  0  0  0  0  0  0  0  0  0  0
   69.0870  151.6770  -50.7470 O   0  0  0  0  0  0  0  0  0  0  0  0
   61.9700  152.7300  -45.8650 H   0  0  0  0  0  0  0  0  0  0  0  0
   63.2960  153.7110  -45.0790 H   0  0  0  0  0  0  0  0  0  0  0  0
   62.4700  153.8070  -48.0780 H   0  0  0  0  0  0  0  0  0  0  0  0
   63.6330  156.0860  -46.9820 H   0  0  0  0  0  0  0  0  0  0  0  0
   64.9480  154.8700  -46.6250 H   0  0  0  0  0  0  0  0  0  0  0  0
   63.8340  155.6900  -49.3100 H   0  0  0  0  0  0  0  0  0  0  0  0
   67.0820  154.1230  -52.8190 H   0  0  0  0  0  0  0  0  0  0  0  0
   68.2250  152.8980  -52.2350 H   0  0  0  0  0  0  0  0  0  0  0  0
   66.4340  150.3430  -48.4790 H   0  0  0  0  0  0  0  0  0  0  0  0
   66.7640  148.7200  -46.6540 H   0  0  0  0  0  0  0  0  0  0  0  0
   69.0390  148.2520  -45.7810 H   0  0  0  0  0  0  0  0  0  0  0  0
   70.9890  149.4750  -46.6890 H   0  0  0  0  0  0  0  0  0  0  0  0
   70.6780  151.2180  -48.4590 H   0  0  0  0  0  0  0  0  0  0  0  0
  1  2  2  0  0  0  0
  1 19  1  0  0  0  0
  1 20  1  0  0  0  0
  2 21  1  0  0  0  0
  3  2  1  0  0  0  0
  3 22  1  0  0  0  0
  3 23  1  0  0  0  0
  4  3  1  0  0  0  0
  4 24  1  0  0  0  0
  5  4  1  0  0  0  0
  5  9  1  0  0  0  0
  6  5  2  0  0  0  0
  7  6  1  0  0  0  0
  7  8  2  0  0  0  0
  8  9  1  0  0  0  0
 10  7  1  0  0  0  0
 10 25  1  0  0  0  0
 10 26  1  0  0  0  0
 11  8  1  0  0  0  0
 11 12  1  0  0  0  0
 12 17  2  0  0  0  0
 12 13  1  0  0  0  0
 13 14  2  0  0  0  0
 13 27  1  0  0  0  0
 14 15  1  0  0  0  0
 14 28  1  0  0  0  0
 15 29  1  0  0  0  0
 16 15  2  0  0  0  0
 16 30  1  0  0  0  0
 17 16  1  0  0  0  0
 17 31  1  0  0  0  0
 18 11  2  0  0  0  0
M  END
>  <lm5_entropy_jk>
22.397995528352578

>  <number_of_rotatable_bonds>
5

>  <IC50_NM>
15000

>  <charge>
0

$$$$
