3EKX
 OpenBabel11252210453D

 86 89  0  0  1  0  0  0  0  0999 V2000
    2.9400   -4.2490   16.4780 C   0  0  2  0  0  0  0  0  0  0  0  0
    3.7620   -5.3660   17.1510 C   0  0  1  0  0  0  0  0  0  0  0  0
    3.1490   -6.7470   16.8530 C   0  0  0  0  0  0  0  0  0  0  0  0
    2.8250   -6.9850   15.3530 C   0  0  0  0  0  0  0  0  0  0  0  0
    2.1340   -5.7810   14.6450 C   0  0  0  0  0  0  0  0  0  0  0  0
    2.8490   -4.4490   14.9430 C   0  0  0  0  0  0  0  0  0  0  0  0
    4.9660   -2.7890   16.2130 N   0  3  1  0  0  0  0  0  0  0  0  0
    5.8670   -3.9140   16.6890 C   0  0  1  0  0  0  0  0  0  0  0  0
    5.2350   -5.3460   16.6970 C   0  0  0  0  0  0  0  0  0  0  0  0
    3.5880   -2.9100   16.8230 C   0  0  0  0  0  0  0  0  0  0  0  0
    7.1050   -3.9110   15.8230 C   0  0  0  0  0  0  0  0  0  0  0  0
    8.1780   -4.4790   16.4400 N   0  0  0  0  0  0  0  0  0  0  0  0
    9.5000   -4.5540   15.9990 C   0  0  0  0  0  0  0  0  0  0  0  0
   10.0220   -3.2160   15.6970 C   0  0  0  0  0  0  0  0  0  0  0  0
    9.5960   -5.4150   14.8170 C   0  0  0  0  0  0  0  0  0  0  0  0
   10.2900   -5.1480   17.0950 C   0  0  0  0  0  0  0  0  0  0  0  0
    7.0960   -3.4050   14.7080 O   0  0  0  0  0  0  0  0  0  0  0  0
    5.5820   -1.4680   16.6560 C   0  0  0  0  0  0  0  0  0  0  0  0
    5.0780   -0.2520   15.8960 C   0  0  2  0  0  0  0  0  0  0  0  0
    5.7210   -0.1370   14.4980 C   0  0  1  0  0  0  0  0  0  0  0  0
    5.3700    0.8770   16.6840 O   0  0  0  0  0  0  0  0  0  0  0  0
    4.9590    0.8050   13.6940 N   0  0  0  0  0  0  0  0  0  0  0  0
    7.2110    0.2330   14.4730 C   0  0  0  0  0  0  0  0  0  0  0  0
    4.1560    0.4130   12.6590 C   0  0  0  0  0  0  0  0  0  0  0  0
    4.1500   -0.7500   12.2740 O   0  0  0  0  0  0  0  0  0  0  0  0
    3.2900    1.5110   12.0890 C   0  0  0  0  0  0  0  0  0  0  0  0
    3.8650    2.7830   11.8500 C   0  0  0  0  0  0  0  0  0  0  0  0
    3.1280    3.8260   11.2710 C   0  0  0  0  0  0  0  0  0  0  0  0
    1.7880    3.6080   10.9260 C   0  0  0  0  0  0  0  0  0  0  0  0
    1.2020    2.3680   11.1810 C   0  0  0  0  0  0  0  0  0  0  0  0
    1.9200    1.3140   11.7860 C   0  0  0  0  0  0  0  0  0  0  0  0
   -0.0800    2.1660   10.8020 O   0  0  0  0  0  0  0  0  0  0  0  0
    1.2010   -0.0100   12.0930 C   0  0  0  0  0  0  0  0  0  0  0  0
    7.8810   -0.0700   12.7700 S   0  0  0  0  0  0  0  0  0  0  0  0
    7.7130    1.4280   11.8020 C   0  0  0  0  0  0  0  0  0  0  0  0
    7.8890    1.3210   10.4120 C   0  0  0  0  0  0  0  0  0  0  0  0
    7.8060    2.4590    9.5900 C   0  0  0  0  0  0  0  0  0  0  0  0
    7.5550    3.7170   10.1610 C   0  0  0  0  0  0  0  0  0  0  0  0
    7.3890    3.8350   11.5510 C   0  0  0  0  0  0  0  0  0  0  0  0
    7.4680    2.6930   12.3710 C   0  0  0  0  0  0  0  0  0  0  0  0
    1.9290   -4.2870   16.9070 H   0  0  0  0  0  0  0  0  0  0  0  0
    3.7370   -5.2060   18.2420 H   0  0  0  0  0  0  0  0  0  0  0  0
    2.2420   -6.8770   17.4510 H   0  0  0  0  0  0  0  0  0  0  0  0
    3.8270   -7.5340   17.2150 H   0  0  0  0  0  0  0  0  0  0  0  0
    2.2000   -7.8820   15.2910 H   0  0  0  0  0  0  0  0  0  0  0  0
    3.7460   -7.2620   14.8310 H   0  0  0  0  0  0  0  0  0  0  0  0
    1.0940   -5.6850   14.9780 H   0  0  0  0  0  0  0  0  0  0  0  0
    2.0850   -5.9600   13.5600 H   0  0  0  0  0  0  0  0  0  0  0  0
    3.8480   -4.4800   14.4930 H   0  0  0  0  0  0  0  0  0  0  0  0
    2.3100   -3.6110   14.4750 H   0  0  0  0  0  0  0  0  0  0  0  0
    6.1840   -3.6580   17.6990 H   0  0  0  0  0  0  0  0  0  0  0  0
    5.3070   -5.7930   15.7010 H   0  0  0  0  0  0  0  0  0  0  0  0
    5.8120   -6.0320   17.3360 H   0  0  0  0  0  0  0  0  0  0  0  0
    3.6970   -2.8500   17.9110 H   0  0  0  0  0  0  0  0  0  0  0  0
    2.9570   -2.0810   16.4870 H   0  0  0  0  0  0  0  0  0  0  0  0
    7.9870   -4.9890   17.2840 H   0  0  0  0  0  0  0  0  0  0  0  0
   11.0650   -3.2510   15.3850 H   0  0  0  0  0  0  0  0  0  0  0  0
    9.4550   -2.7700   14.8750 H   0  0  0  0  0  0  0  0  0  0  0  0
    9.9300   -2.5630   16.5690 H   0  0  0  0  0  0  0  0  0  0  0  0
    8.9910   -4.9710   14.0240 H   0  0  0  0  0  0  0  0  0  0  0  0
   10.6270   -5.5130   14.4670 H   0  0  0  0  0  0  0  0  0  0  0  0
    9.1870   -6.4080   15.0380 H   0  0  0  0  0  0  0  0  0  0  0  0
   11.3270   -5.3010   16.7910 H   0  0  0  0  0  0  0  0  0  0  0  0
   10.2980   -4.4920   17.9730 H   0  0  0  0  0  0  0  0  0  0  0  0
    9.8910   -6.1310   17.3760 H   0  0  0  0  0  0  0  0  0  0  0  0
    6.6700   -1.5190   16.5440 H   0  0  0  0  0  0  0  0  0  0  0  0
    5.3880   -1.3310   17.7220 H   0  0  0  0  0  0  0  0  0  0  0  0
    3.9860   -0.3230   15.7540 H   0  0  0  0  0  0  0  0  0  0  0  0
    5.6560   -1.1330   14.0390 H   0  0  0  0  0  0  0  0  0  0  0  0
    6.3010    0.7870   17.0240 H   0  0  0  0  0  0  0  0  0  0  0  0
    4.9070    1.7780   13.9910 H   0  0  0  0  0  0  0  0  0  0  0  0
    7.7610   -0.4120   15.1700 H   0  0  0  0  0  0  0  0  0  0  0  0
    7.3770    1.2540   14.8280 H   0  0  0  0  0  0  0  0  0  0  0  0
    4.9140    2.9490   12.0790 H   0  0  0  0  0  0  0  0  0  0  0  0
    3.6140    4.7780   11.0480 H   0  0  0  0  0  0  0  0  0  0  0  0
    1.2050    4.3760   10.4220 H   0  0  0  0  0  0  0  0  0  0  0  0
   -0.2310    1.2140   10.9300 H   0  0  0  0  0  0  0  0  0  0  0  0
    1.1510   -0.6340   11.1910 H   0  0  0  0  0  0  0  0  0  0  0  0
    1.7270   -0.6010   12.8530 H   0  0  0  0  0  0  0  0  0  0  0  0
    0.1920    0.1360   12.4980 H   0  0  0  0  0  0  0  0  0  0  0  0
    8.0970    0.3470    9.9740 H   0  0  0  0  0  0  0  0  0  0  0  0
    7.9370    2.3660    8.5120 H   0  0  0  0  0  0  0  0  0  0  0  0
    7.4910    4.6030    9.5260 H   0  0  0  0  0  0  0  0  0  0  0  0
    7.1980    4.8120   11.9950 H   0  0  0  0  0  0  0  0  0  0  0  0
    7.3380    2.8060   13.4410 H   0  0  0  0  0  0  0  0  0  0  0  0
    4.9180   -2.8870   15.1800 H   0  0  0  0  0  0  0  0  0  0  0  0
  1  2  1  0  0  0  0
  1  6  1  0  0  0  0
  1 10  1  0  0  0  0
  1 41  1  1  0  0  0
  2  3  1  0  0  0  0
  2  9  1  0  0  0  0
  2 42  1  1  0  0  0
  3  4  1  0  0  0  0
  3 43  1  0  0  0  0
  3 44  1  0  0  0  0
  4  5  1  0  0  0  0
  4 45  1  0  0  0  0
  4 46  1  0  0  0  0
  5  6  1  0  0  0  0
  5 47  1  0  0  0  0
  5 48  1  0  0  0  0
  6 49  1  0  0  0  0
  6 50  1  0  0  0  0
  7  8  1  0  0  0  0
  7 10  1  0  0  0  0
  7 18  1  0  0  0  0
  7 86  1  6  0  0  0
  8  9  1  0  0  0  0
  8 11  1  0  0  0  0
  8 51  1  1  0  0  0
  9 52  1  0  0  0  0
  9 53  1  0  0  0  0
 10 54  1  0  0  0  0
 10 55  1  0  0  0  0
 11 12  1  0  0  0  0
 11 17  2  0  0  0  0
 12 13  1  0  0  0  0
 12 56  1  0  0  0  0
 13 14  1  0  0  0  0
 13 15  1  0  0  0  0
 13 16  1  0  0  0  0
 14 57  1  0  0  0  0
 14 58  1  0  0  0  0
 14 59  1  0  0  0  0
 15 60  1  0  0  0  0
 15 61  1  0  0  0  0
 15 62  1  0  0  0  0
 16 63  1  0  0  0  0
 16 64  1  0  0  0  0
 16 65  1  0  0  0  0
 18 19  1  0  0  0  0
 18 66  1  0  0  0  0
 18 67  1  0  0  0  0
 19 20  1  0  0  0  0
 19 21  1  0  0  0  0
 19 68  1  6  0  0  0
 20 22  1  0  0  0  0
 20 23  1  0  0  0  0
 20 69  1  6  0  0  0
 21 70  1  0  0  0  0
 22 24  1  0  0  0  0
 22 71  1  0  0  0  0
 23 34  1  0  0  0  0
 23 72  1  0  0  0  0
 23 73  1  0  0  0  0
 24 25  2  0  0  0  0
 24 26  1  0  0  0  0
 26 27  2  0  0  0  0
 26 31  1  0  0  0  0
 27 28  1  0  0  0  0
 27 74  1  0  0  0  0
 28 29  2  0  0  0  0
 28 75  1  0  0  0  0
 29 30  1  0  0  0  0
 29 76  1  0  0  0  0
 30 31  2  0  0  0  0
 30 32  1  0  0  0  0
 31 33  1  0  0  0  0
 32 77  1  0  0  0  0
 33 78  1  0  0  0  0
 33 79  1  0  0  0  0
 33 80  1  0  0  0  0
 34 35  1  0  0  0  0
 35 36  2  0  0  0  0
 35 40  1  0  0  0  0
 36 37  1  0  0  0  0
 36 81  1  0  0  0  0
 37 38  2  0  0  0  0
 37 82  1  0  0  0  0
 38 39  1  0  0  0  0
 38 83  1  0  0  0  0
 39 40  2  0  0  0  0
 39 84  1  0  0  0  0
 40 85  1  0  0  0  0
M  CHG  1   7   1
M  END
>  <charge>
1

>  <KI_NM>
0.07

>  <number_of_rotatable_bonds>
12

>  <lm5_entropy_jk>
45.93606948979449

>  <ligand_crystal_conformation>
B

$$$$
