5NXP
 OpenBabel11252210453D

 38 39  0  0  0  0  0  0  0  0999 V2000
   -2.0170    8.5180   11.4160 N   0  0  0  0  0  0  0  0  0  0  0  0
   -3.5750    6.7780   12.8750 N   0  0  0  0  0  0  0  0  0  0  0  0
   -5.4080    0.9780   15.9220 N   0  5  0  0  0  0  0  0  0  0  0  0
   -3.4960    8.6520   11.2210 C   0  0  0  0  0  0  0  0  0  0  0  0
   -1.3210    8.0890   10.1710 C   0  0  0  0  0  0  0  0  0  0  0  0
   -4.1160    5.7600   13.7380 C   0  0  0  0  0  0  0  0  0  0  0  0
   -1.3930    9.5760   12.1690 C   0  0  0  0  0  0  0  0  0  0  0  0
   -0.2870   10.3090   11.6980 C   0  0  0  0  0  0  0  0  0  0  0  0
    0.3570   11.2270   12.5330 C   0  0  0  0  0  0  0  0  0  0  0  0
   -0.0930   11.4370   13.8380 C   0  0  0  0  0  0  0  0  0  0  0  0
   -1.1980   10.7170   14.3090 C   0  0  0  0  0  0  0  0  0  0  0  0
   -1.8500    9.8000   13.4890 C   0  0  0  0  0  0  0  0  0  0  0  0
   -5.3490    5.9050   14.3880 C   0  0  0  0  0  0  0  0  0  0  0  0
   -5.7740    4.9030   15.2710 C   0  0  0  0  0  0  0  0  0  0  0  0
   -4.9980    3.7650   15.4920 C   0  0  0  0  0  0  0  0  0  0  0  0
   -3.7660    3.6400   14.8510 C   0  0  0  0  0  0  0  0  0  0  0  0
   -3.3210    4.6240   13.9670 C   0  0  0  0  0  0  0  0  0  0  0  0
   -4.2910    7.5760   11.9880 C   0  0  0  0  0  0  0  0  0  0  0  0
   -5.5010    7.4610   11.8290 O   0  0  0  0  0  0  0  0  0  0  0  0
   -4.8490    2.6850   17.8460 O   0  0  0  0  0  0  0  0  0  0  0  0
   -7.0460    2.6500   16.5550 O   0  0  0  0  0  0  0  0  0  0  0  0
   -5.5800    2.4910   16.5890 S   0  0  0  0  0  0  0  0  0  0  0  0
   -2.5400    6.8110   12.8210 H   0  0  0  0  0  0  0  0  0  0  0  0
   -4.4700    0.5770   16.2850 H   0  0  0  0  0  0  0  0  0  0  0  0
    0.0900   10.1840   10.6790 H   0  0  0  0  0  0  0  0  0  0  0  0
    1.2170   11.7870   12.1540 H   0  0  0  0  0  0  0  0  0  0  0  0
   -2.3560    4.5130   13.4660 H   0  0  0  0  0  0  0  0  0  0  0  0
   -1.7900    7.1300    9.8230 H   0  0  0  0  0  0  0  0  0  0  0  0
   -0.2460    7.8730   10.4050 H   0  0  0  0  0  0  0  0  0  0  0  0
   -1.3700    8.8370    9.3390 H   0  0  0  0  0  0  0  0  0  0  0  0
   -3.7630    8.5600   10.1300 H   0  0  0  0  0  0  0  0  0  0  0  0
   -3.8690    9.6550   11.5610 H   0  0  0  0  0  0  0  0  0  0  0  0
    0.4130   12.1580   14.4820 H   0  0  0  0  0  0  0  0  0  0  0  0
   -1.5480   10.8750   15.3330 H   0  0  0  0  0  0  0  0  0  0  0  0
   -2.7040    9.2430   13.8830 H   0  0  0  0  0  0  0  0  0  0  0  0
   -5.9550    6.7990   14.2330 H   0  0  0  0  0  0  0  0  0  0  0  0
   -6.7270    5.0550   15.7950 H   0  0  0  0  0  0  0  0  0  0  0  0
   -3.1150    2.7770   15.0130 H   0  0  0  0  0  0  0  0  0  0  0  0
  1  4  1  0  0  0  0
  1  5  1  0  0  0  0
  1  7  1  0  0  0  0
  3 22  1  0  0  0  0
  4 18  1  0  0  0  0
  6  2  1  0  0  0  0
  6 13  2  0  0  0  0
  6 17  1  0  0  0  0
  7  8  2  0  0  0  0
  7 12  1  0  0  0  0
  8  9  1  0  0  0  0
  9 10  2  0  0  0  0
 10 11  1  0  0  0  0
 11 12  2  0  0  0  0
 13 14  1  0  0  0  0
 14 15  2  0  0  0  0
 15 16  1  0  0  0  0
 15 22  1  0  0  0  0
 16 17  2  0  0  0  0
 18  2  1  0  0  0  0
 18 19  2  0  0  0  0
 20 22  2  0  0  0  0
 21 22  2  0  0  0  0
 23  2  1  0  0  0  0
 24  3  1  0  0  0  0
 25  8  1  0  0  0  0
 26  9  1  0  0  0  0
 27 17  1  0  0  0  0
 28  5  1  0  0  0  0
 29  5  1  0  0  0  0
 30  5  1  0  0  0  0
 31  4  1  0  0  0  0
 32  4  1  0  0  0  0
 33 10  1  0  0  0  0
 34 11  1  0  0  0  0
 35 12  1  0  0  0  0
 36 13  1  0  0  0  0
 37 14  1  0  0  0  0
 38 16  1  0  0  0  0
M  CHG  1   3  -1
M  END
>  <deltaG_kcalmol>
-10.9

>  <number_of_rotatable_bonds>
6

>  <charge>
-1

>  <lm5_entropy_jk>
29.891156435929506

$$$$
