3RAH
 OpenBabel11252210453D

 46 49  0  0  1  0  0  0  0  0999 V2000
   65.5870  154.4730  -49.9430 N   0  0  0  0  0  0  0  0  0  0  0  0
   64.0320  155.0860  -48.3200 N   0  0  0  0  0  0  0  0  0  0  0  0
   67.2310  153.5680  -51.2920 N   0  0  0  0  0  0  0  0  0  0  0  0
   68.7200  149.2440  -45.5670 C   0  0  0  0  0  0  0  0  0  0  0  0
   68.9970  148.8190  -46.8720 C   0  0  0  0  0  0  0  0  0  0  0  0
   68.7870  149.6750  -47.9680 C   0  0  0  0  0  0  0  0  0  0  0  0
   68.0740  151.4160  -46.4450 C   0  0  0  0  0  0  0  0  0  0  0  0
   68.2560  150.5520  -45.3500 C   0  0  0  0  0  0  0  0  0  0  0  0
   68.9030  148.3700  -44.4810 C   0  0  0  0  0  0  0  0  0  0  0  0
   68.6140  148.7980  -43.1730 C   0  0  0  0  0  0  0  0  0  0  0  0
   68.1570  150.1080  -42.9520 C   0  0  0  0  0  0  0  0  0  0  0  0
   67.9780  150.9840  -44.0390 C   0  0  0  0  0  0  0  0  0  0  0  0
   68.3020  150.9860  -47.7750 C   0  0  0  0  0  0  0  0  0  0  0  0
   68.0960  151.8860  -48.9890 C   0  0  0  0  0  0  0  0  0  0  0  0
   66.9760  152.8440  -49.0100 C   0  0  0  0  0  0  0  0  0  0  0  0
   66.6480  153.6170  -50.0890 C   0  0  0  0  0  0  0  0  0  0  0  0
   65.0680  154.3080  -48.7430 C   0  0  0  0  0  0  0  0  0  0  0  0
   63.4750  155.0610  -46.9700 C   0  0  0  0  0  0  0  0  0  0  0  0
   62.4410  153.9330  -46.8350 C   0  0  0  0  0  0  0  0  0  0  0  0
   61.8360  153.9130  -45.4050 C   0  0  0  0  0  0  0  0  0  0  0  0
   61.1850  155.2760  -45.0660 C   0  0  0  0  0  0  0  0  0  0  0  0
   62.1890  156.4360  -45.2490 C   0  0  0  0  0  0  0  0  0  0  0  0
   62.7920  156.4040  -46.6780 C   0  0  0  0  0  0  0  0  0  0  0  0
   68.8510  151.7940  -49.9450 O   0  0  0  0  0  0  0  0  0  0  0  0
   65.7430  153.0120  -47.7900 S   0  0  0  0  0  0  0  0  0  0  0  0
   69.3630  147.8110  -47.0290 H   0  0  0  0  0  0  0  0  0  0  0  0
   68.9990  149.3200  -48.9770 H   0  0  0  0  0  0  0  0  0  0  0  0
   63.4810  155.5150  -49.0590 H   0  0  0  0  0  0  0  0  0  0  0  0
   67.7690  152.4330  -46.2510 H   0  0  0  0  0  0  0  0  0  0  0  0
   66.9650  154.2100  -52.0280 H   0  0  0  0  0  0  0  0  0  0  0  0
   68.0420  152.9670  -51.3530 H   0  0  0  0  0  0  0  0  0  0  0  0
   69.2520  147.3540  -44.6550 H   0  0  0  0  0  0  0  0  0  0  0  0
   68.7440  148.1190  -42.3290 H   0  0  0  0  0  0  0  0  0  0  0  0
   67.9310  150.4360  -41.9370 H   0  0  0  0  0  0  0  0  0  0  0  0
   67.6060  151.9890  -43.8620 H   0  0  0  0  0  0  0  0  0  0  0  0
   64.2730  154.9080  -46.2290 H   0  0  0  0  0  0  0  0  0  0  0  0
   62.9030  152.9640  -47.0610 H   0  0  0  0  0  0  0  0  0  0  0  0
   61.6610  154.0880  -47.5890 H   0  0  0  0  0  0  0  0  0  0  0  0
   62.6260  153.6900  -44.6710 H   0  0  0  0  0  0  0  0  0  0  0  0
   61.1080  153.1000  -45.2940 H   0  0  0  0  0  0  0  0  0  0  0  0
   60.8050  155.2670  -44.0340 H   0  0  0  0  0  0  0  0  0  0  0  0
   60.3130  155.4530  -45.7120 H   0  0  0  0  0  0  0  0  0  0  0  0
   61.6920  157.4010  -45.0640 H   0  0  0  0  0  0  0  0  0  0  0  0
   62.9900  156.3600  -44.4970 H   0  0  0  0  0  0  0  0  0  0  0  0
   62.0050  156.5800  -47.4250 H   0  0  0  0  0  0  0  0  0  0  0  0
   63.5160  157.2170  -46.7890 H   0  0  0  0  0  0  0  0  0  0  0  0
  1 17  2  0  0  0  0
  2 18  1  0  0  0  0
  2 28  1  0  0  0  0
  3 16  1  0  0  0  0
  3 30  1  0  0  0  0
  3 31  1  0  0  0  0
  4  9  1  0  0  0  0
  5  4  2  0  0  0  0
  5 26  1  0  0  0  0
  6  5  1  0  0  0  0
  6 27  1  0  0  0  0
  7  8  2  0  0  0  0
  7 29  1  0  0  0  0
  8  4  1  0  0  0  0
  8 12  1  0  0  0  0
  9 10  2  0  0  0  0
  9 32  1  0  0  0  0
 10 33  1  0  0  0  0
 11 10  1  0  0  0  0
 11 34  1  0  0  0  0
 12 11  2  0  0  0  0
 12 35  1  0  0  0  0
 13  6  2  0  0  0  0
 13  7  1  0  0  0  0
 14 13  1  0  0  0  0
 14 24  2  0  0  0  0
 15 14  1  0  0  0  0
 15 25  1  0  0  0  0
 16  1  1  0  0  0  0
 16 15  2  0  0  0  0
 17  2  1  0  0  0  0
 17 25  1  0  0  0  0
 18 23  1  0  0  0  0
 18 36  1  0  0  0  0
 19 18  1  0  0  0  0
 19 20  1  0  0  0  0
 19 37  1  0  0  0  0
 19 38  1  0  0  0  0
 20 21  1  0  0  0  0
 20 39  1  0  0  0  0
 20 40  1  0  0  0  0
 21 41  1  0  0  0  0
 21 42  1  0  0  0  0
 22 21  1  0  0  0  0
 22 43  1  0  0  0  0
 22 44  1  0  0  0  0
 23 22  1  0  0  0  0
 23 45  1  0  0  0  0
 23 46  1  0  0  0  0
M  END
>  <lm5_entropy_jk>
20.76925268888156

>  <number_of_rotatable_bonds>
4

>  <IC50_NM>
12000

>  <charge>
0

$$$$
