3RAH
 OpenBabel11252210453D

 46 49  0  0  1  0  0  0  0  0999 V2000
   65.7490  154.1210  -49.8880 N   0  0  0  0  0  0  0  0  0  0  0  0
   64.0260  154.5540  -48.3810 N   0  0  0  0  0  0  0  0  0  0  0  0
   67.5560  153.4000  -51.1250 N   0  0  0  0  0  0  0  0  0  0  0  0
   68.6400  149.0820  -45.3430 C   0  0  0  0  0  0  0  0  0  0  0  0
   68.9750  148.5970  -46.6150 C   0  0  0  0  0  0  0  0  0  0  0  0
   68.8880  149.4330  -47.7420 C   0  0  0  0  0  0  0  0  0  0  0  0
   68.2350  151.2800  -46.3050 C   0  0  0  0  0  0  0  0  0  0  0  0
   68.2810  150.4330  -45.1830 C   0  0  0  0  0  0  0  0  0  0  0  0
   68.6480  148.2180  -44.2360 C   0  0  0  0  0  0  0  0  0  0  0  0
   68.2830  148.6980  -42.9660 C   0  0  0  0  0  0  0  0  0  0  0  0
   67.9280  150.0470  -42.8030 C   0  0  0  0  0  0  0  0  0  0  0  0
   67.9340  150.9180  -43.9080 C   0  0  0  0  0  0  0  0  0  0  0  0
   68.4790  150.7770  -47.6050 C   0  0  0  0  0  0  0  0  0  0  0  0
   68.3110  151.6310  -48.8480 C   0  0  0  0  0  0  0  0  0  0  0  0
   67.1520  152.5310  -48.9230 C   0  0  0  0  0  0  0  0  0  0  0  0
   66.8670  153.3370  -49.9840 C   0  0  0  0  0  0  0  0  0  0  0  0
   65.1460  153.8670  -48.7430 C   0  0  0  0  0  0  0  0  0  0  0  0
   63.5040  154.6080  -47.0190 C   0  0  0  0  0  0  0  0  0  0  0  0
   62.3870  153.5940  -46.8290 C   0  0  0  0  0  0  0  0  0  0  0  0
   61.8470  153.6560  -45.3720 C   0  0  0  0  0  0  0  0  0  0  0  0
   61.3260  155.0710  -45.0310 C   0  0  0  0  0  0  0  0  0  0  0  0
   62.4090  156.1430  -45.2800 C   0  0  0  0  0  0  0  0  0  0  0  0
   62.9850  156.0220  -46.7180 C   0  0  0  0  0  0  0  0  0  0  0  0
   69.1060  151.5450  -49.7700 O   0  0  0  0  0  0  0  0  0  0  0  0
   65.8460  152.5980  -47.7700 S   0  0  0  0  0  0  0  0  0  0  0  0
   69.2680  147.5560  -46.7240 H   0  0  0  0  0  0  0  0  0  0  0  0
   69.1140  149.0340  -48.7310 H   0  0  0  0  0  0  0  0  0  0  0  0
   63.6320  155.1740  -49.0840 H   0  0  0  0  0  0  0  0  0  0  0  0
   67.9720  152.3240  -46.1660 H   0  0  0  0  0  0  0  0  0  0  0  0
   67.1230  153.8280  -51.9270 H   0  0  0  0  0  0  0  0  0  0  0  0
   68.3040  152.7230  -51.2080 H   0  0  0  0  0  0  0  0  0  0  0  0
   68.9090  147.1690  -44.3670 H   0  0  0  0  0  0  0  0  0  0  0  0
   68.2760  148.0260  -42.1060 H   0  0  0  0  0  0  0  0  0  0  0  0
   67.6360  150.4120  -41.8180 H   0  0  0  0  0  0  0  0  0  0  0  0
   67.6390  151.9570  -43.7780 H   0  0  0  0  0  0  0  0  0  0  0  0
   64.2850  154.3510  -46.3000 H   0  0  0  0  0  0  0  0  0  0  0  0
   62.7540  152.5860  -47.0610 H   0  0  0  0  0  0  0  0  0  0  0  0
   61.6110  153.8260  -47.5590 H   0  0  0  0  0  0  0  0  0  0  0  0
   62.6500  153.3820  -44.6710 H   0  0  0  0  0  0  0  0  0  0  0  0
   61.0590  152.9140  -45.2030 H   0  0  0  0  0  0  0  0  0  0  0  0
   60.9980  155.1080  -43.9810 H   0  0  0  0  0  0  0  0  0  0  0  0
   60.4400  155.3070  -45.6350 H   0  0  0  0  0  0  0  0  0  0  0  0
   61.9890  157.1490  -45.1210 H   0  0  0  0  0  0  0  0  0  0  0  0
   63.2090  156.0320  -44.5340 H   0  0  0  0  0  0  0  0  0  0  0  0
   62.2120  156.2880  -47.4530 H   0  0  0  0  0  0  0  0  0  0  0  0
   63.7980  156.7410  -46.8420 H   0  0  0  0  0  0  0  0  0  0  0  0
  1 17  2  0  0  0  0
  2 18  1  0  0  0  0
  2 28  1  0  0  0  0
  3 16  1  0  0  0  0
  3 30  1  0  0  0  0
  3 31  1  0  0  0  0
  4  9  1  0  0  0  0
  5  4  2  0  0  0  0
  5 26  1  0  0  0  0
  6  5  1  0  0  0  0
  6 27  1  0  0  0  0
  7  8  2  0  0  0  0
  7 29  1  0  0  0  0
  8  4  1  0  0  0  0
  8 12  1  0  0  0  0
  9 10  2  0  0  0  0
  9 32  1  0  0  0  0
 10 33  1  0  0  0  0
 11 10  1  0  0  0  0
 11 34  1  0  0  0  0
 12 11  2  0  0  0  0
 12 35  1  0  0  0  0
 13  6  2  0  0  0  0
 13  7  1  0  0  0  0
 14 13  1  0  0  0  0
 14 24  2  0  0  0  0
 15 14  1  0  0  0  0
 15 25  1  0  0  0  0
 16  1  1  0  0  0  0
 16 15  2  0  0  0  0
 17  2  1  0  0  0  0
 17 25  1  0  0  0  0
 18 23  1  0  0  0  0
 18 36  1  0  0  0  0
 19 18  1  0  0  0  0
 19 20  1  0  0  0  0
 19 37  1  0  0  0  0
 19 38  1  0  0  0  0
 20 21  1  0  0  0  0
 20 39  1  0  0  0  0
 20 40  1  0  0  0  0
 21 41  1  0  0  0  0
 21 42  1  0  0  0  0
 22 21  1  0  0  0  0
 22 43  1  0  0  0  0
 22 44  1  0  0  0  0
 23 22  1  0  0  0  0
 23 45  1  0  0  0  0
 23 46  1  0  0  0  0
M  END
>  <lm5_entropy_jk>
20.76925268888156

>  <number_of_rotatable_bonds>
4

>  <IC50_NM>
12000

>  <charge>
0

$$$$
