3KXM
 OpenBabel11252210453D

 29 30  0  0  1  0  0  0  0  0999 V2000
   23.3260    7.0640   18.5000 C   0  0  0  0  0  0  0  0  0  0  0  0
   22.9420    6.6540   19.7840 C   0  0  0  0  0  0  0  0  0  0  0  0
   22.0530    7.3830   20.5290 C   0  0  0  0  0  0  0  0  0  0  0  0
   21.3950    8.5180   20.0120 C   0  0  0  0  0  0  0  0  0  0  0  0
   21.7170    8.9130   18.6880 C   0  0  0  0  0  0  0  0  0  0  0  0
   22.6900    8.1960   17.9430 C   0  0  0  0  0  0  0  0  0  0  0  0
   23.3700    5.5380   20.4180 N   0  0  0  0  0  0  0  0  0  0  0  0
   22.7300    5.6400   21.5900 C   0  0  0  0  0  0  0  0  0  0  0  0
   21.9250    6.7750   21.7580 N   0  0  0  0  0  0  0  0  0  0  0  0
   22.8550    4.4440   22.8900 S   0  0  0  0  0  0  0  0  0  0  0  0
   23.1130    2.8310   22.0290 C   0  0  0  0  0  0  0  0  0  0  0  0
   24.5400    2.5770   21.7250 C   0  0  0  0  0  0  0  0  0  0  0  0
   24.9820    3.1370   20.5580 N   0  0  0  0  0  0  0  0  0  0  0  0
   25.2380    1.8900   22.4440 O   0  0  0  0  0  0  0  0  0  0  0  0
   26.2710    2.8130   19.8740 C   0  0  0  0  0  0  0  0  0  0  0  0
   21.2340    7.2490   22.9780 C   0  0  0  0  0  0  0  0  0  0  0  0
   24.6780    6.0950   17.5340 Br  0  0  0  0  0  0  0  0  0  0  0  0
   23.1170    8.7230   16.1480 Br  0  0  0  0  0  0  0  0  0  0  0  0
   20.8260   10.4270   17.8920 Br  0  0  0  0  0  0  0  0  0  0  0  0
   20.0600    9.4780   21.0040 Br  0  0  0  0  0  0  0  0  0  0  0  0
   21.5230    8.2830   23.2020 H   0  0  0  0  0  0  0  0  0  0  0  0
   22.5370    2.7800   21.1020 H   0  0  0  0  0  0  0  0  0  0  0  0
   24.3220    3.7920   20.1400 H   0  0  0  0  0  0  0  0  0  0  0  0
   27.0950    3.3850   20.3190 H   0  0  0  0  0  0  0  0  0  0  0  0
   21.4980    6.6280   23.8440 H   0  0  0  0  0  0  0  0  0  0  0  0
   22.7970    2.0090   22.6780 H   0  0  0  0  0  0  0  0  0  0  0  0
   26.2100    3.0480   18.7990 H   0  0  0  0  0  0  0  0  0  0  0  0
   20.1470    7.1930   22.8360 H   0  0  0  0  0  0  0  0  0  0  0  0
   26.4880    1.7380   19.9720 H   0  0  0  0  0  0  0  0  0  0  0  0
  1  2  2  0  0  0  0
  1  6  1  0  0  0  0
  1 17  1  0  0  0  0
  2  3  1  0  0  0  0
  2  7  1  0  0  0  0
  3  4  2  0  0  0  0
  3  9  1  0  0  0  0
  4  5  1  0  0  0  0
  4 20  1  0  0  0  0
  5  6  2  0  0  0  0
  5 19  1  0  0  0  0
  6 18  1  0  0  0  0
  7  8  2  0  0  0  0
  8  9  1  0  0  0  0
  8 10  1  0  0  0  0
  9 16  1  0  0  0  0
 10 11  1  0  0  0  0
 11 12  1  0  0  0  0
 11 22  1  0  0  0  0
 11 26  1  0  0  0  0
 12 13  1  0  0  0  0
 12 14  2  0  0  0  0
 13 15  1  0  0  0  0
 13 23  1  0  0  0  0
 15 24  1  0  0  0  0
 15 27  1  0  0  0  0
 15 29  1  0  0  0  0
 16 21  1  0  0  0  0
 16 25  1  0  0  0  0
 16 28  1  0  0  0  0
M  END
>  <Ki_NM>
280

>  <charge>
0

>  <number_of_rotatable_bonds>
4

>  <lm5_entropy_jk>
36.06614597483307

$$$$
