3RK7
 OpenBabel11252210453D

 37 39  0  0  1  0  0  0  0  0999 V2000
   64.3670  154.5620  -48.6850 N   0  0  0  0  0  0  0  0  0  0  0  0
   65.8260  154.2580  -50.4590 N   0  0  0  0  0  0  0  0  0  0  0  0
   67.3120  153.4870  -52.0540 N   0  0  0  0  0  0  0  0  0  0  0  0
   70.7250  149.6090  -47.8460 N   0  0  0  0  0  0  0  0  0  0  0  0
   61.5290  153.2370  -42.9600 N   0  0  0  0  0  0  0  0  0  0  0  0
   63.6920  154.4600  -47.4770 C   0  0  0  0  0  0  0  0  0  0  0  0
   65.5150  154.0290  -49.1970 C   0  0  0  0  0  0  0  0  0  0  0  0
   66.9300  153.5120  -50.7820 C   0  0  0  0  0  0  0  0  0  0  0  0
   67.4780  152.7510  -49.8000 C   0  0  0  0  0  0  0  0  0  0  0  0
   68.6090  151.8430  -50.0220 C   0  0  0  0  0  0  0  0  0  0  0  0
   68.9640  150.8500  -48.9580 C   0  0  0  0  0  0  0  0  0  0  0  0
   67.9870  150.1270  -48.2470 C   0  0  0  0  0  0  0  0  0  0  0  0
   68.4120  149.1600  -47.3240 C   0  0  0  0  0  0  0  0  0  0  0  0
   69.7860  148.9320  -47.1500 C   0  0  0  0  0  0  0  0  0  0  0  0
   70.3190  150.5400  -48.7400 C   0  0  0  0  0  0  0  0  0  0  0  0
   62.8490  155.5080  -47.0860 C   0  0  0  0  0  0  0  0  0  0  0  0
   62.1720  155.4720  -45.8540 C   0  0  0  0  0  0  0  0  0  0  0  0
   62.3260  154.3720  -44.9840 C   0  0  0  0  0  0  0  0  0  0  0  0
   63.1540  153.3020  -45.3910 C   0  0  0  0  0  0  0  0  0  0  0  0
   63.8110  153.3430  -46.6350 C   0  0  0  0  0  0  0  0  0  0  0  0
   61.6500  154.4020  -43.6330 C   0  0  0  0  0  0  0  0  0  0  0  0
   69.2430  151.8670  -51.0600 O   0  0  0  0  0  0  0  0  0  0  0  0
   61.2250  155.4270  -43.1350 O   0  0  0  0  0  0  0  0  0  0  0  0
   66.6440  153.0280  -48.3000 S   0  0  0  0  0  0  0  0  0  0  0  0
   63.9100  155.1740  -49.3550 H   0  0  0  0  0  0  0  0  0  0  0  0
   67.0280  154.2190  -52.6930 H   0  0  0  0  0  0  0  0  0  0  0  0
   68.1820  152.9900  -52.2050 H   0  0  0  0  0  0  0  0  0  0  0  0
   66.9240  150.2900  -48.4230 H   0  0  0  0  0  0  0  0  0  0  0  0
   67.6870  148.5810  -46.7530 H   0  0  0  0  0  0  0  0  0  0  0  0
   70.1400  148.1700  -46.4470 H   0  0  0  0  0  0  0  0  0  0  0  0
   71.1020  151.0480  -49.3130 H   0  0  0  0  0  0  0  0  0  0  0  0
   62.7340  156.3740  -47.7310 H   0  0  0  0  0  0  0  0  0  0  0  0
   61.5390  156.3120  -45.5640 H   0  0  0  0  0  0  0  0  0  0  0  0
   63.3240  152.4490  -44.7370 H   0  0  0  0  0  0  0  0  0  0  0  0
   64.4200  152.4950  -46.9290 H   0  0  0  0  0  0  0  0  0  0  0  0
   61.7850  152.3460  -43.3870 H   0  0  0  0  0  0  0  0  0  0  0  0
   61.1290  153.2680  -42.0350 H   0  0  0  0  0  0  0  0  0  0  0  0
  1  6  1  0  0  0  0
  1  7  1  0  0  0  0
  1 25  1  0  0  0  0
  2  7  2  0  0  0  0
  2  8  1  0  0  0  0
  3  8  1  0  0  0  0
  3 26  1  0  0  0  0
  3 27  1  0  0  0  0
  4 14  2  0  0  0  0
  4 15  1  0  0  0  0
  5 21  1  0  0  0  0
  5 36  1  0  0  0  0
  5 37  1  0  0  0  0
  6 16  2  0  0  0  0
  6 20  1  0  0  0  0
  7 24  1  0  0  0  0
  8  9  2  0  0  0  0
  9 24  1  0  0  0  0
 10  9  1  0  0  0  0
 10 11  1  0  0  0  0
 10 22  2  0  0  0  0
 11 12  1  0  0  0  0
 11 15  2  0  0  0  0
 12 13  2  0  0  0  0
 12 28  1  0  0  0  0
 13 14  1  0  0  0  0
 13 29  1  0  0  0  0
 14 30  1  0  0  0  0
 15 31  1  0  0  0  0
 16 17  1  0  0  0  0
 16 32  1  0  0  0  0
 17 18  2  0  0  0  0
 17 33  1  0  0  0  0
 18 19  1  0  0  0  0
 18 21  1  0  0  0  0
 19 20  2  0  0  0  0
 19 34  1  0  0  0  0
 20 35  1  0  0  0  0
 21 23  2  0  0  0  0
M  END
>  <lm5_entropy_jk>
19.089102203703476

>  <number_of_rotatable_bonds>
5

>  <IC50_NM>
200

>  <charge>
0

$$$$
