3RK7
 OpenBabel11252210453D

 37 39  0  0  1  0  0  0  0  0999 V2000
   64.3660  154.6160  -48.5610 N   0  0  0  0  0  0  0  0  0  0  0  0
   65.7370  154.3590  -50.4010 N   0  0  0  0  0  0  0  0  0  0  0  0
   67.1360  153.6200  -52.0840 N   0  0  0  0  0  0  0  0  0  0  0  0
   71.0480  150.0940  -48.0470 N   0  0  0  0  0  0  0  0  0  0  0  0
   61.5350  153.0950  -42.8870 N   0  0  0  0  0  0  0  0  0  0  0  0
   63.6990  154.4750  -47.3510 C   0  0  0  0  0  0  0  0  0  0  0  0
   65.4970  154.1070  -49.1290 C   0  0  0  0  0  0  0  0  0  0  0  0
   66.8270  153.6300  -50.7940 C   0  0  0  0  0  0  0  0  0  0  0  0
   67.4560  152.8840  -49.8520 C   0  0  0  0  0  0  0  0  0  0  0  0
   68.6180  152.0420  -50.1410 C   0  0  0  0  0  0  0  0  0  0  0  0
   69.1140  151.1110  -49.0850 C   0  0  0  0  0  0  0  0  0  0  0  0
   68.2540  150.3020  -48.3200 C   0  0  0  0  0  0  0  0  0  0  0  0
   68.8260  149.4020  -47.4080 C   0  0  0  0  0  0  0  0  0  0  0  0
   70.2230  149.3300  -47.2990 C   0  0  0  0  0  0  0  0  0  0  0  0
   70.5010  150.9610  -48.9270 C   0  0  0  0  0  0  0  0  0  0  0  0
   62.7650  155.4520  -46.9850 C   0  0  0  0  0  0  0  0  0  0  0  0
   62.0680  155.3730  -45.7670 C   0  0  0  0  0  0  0  0  0  0  0  0
   62.2890  154.2950  -44.8860 C   0  0  0  0  0  0  0  0  0  0  0  0
   63.2150  153.2960  -45.2640 C   0  0  0  0  0  0  0  0  0  0  0  0
   63.8950  153.3810  -46.4930 C   0  0  0  0  0  0  0  0  0  0  0  0
   61.5730  154.2680  -43.5560 C   0  0  0  0  0  0  0  0  0  0  0  0
   69.1800  152.0820  -51.2200 O   0  0  0  0  0  0  0  0  0  0  0  0
   61.0410  155.2510  -43.0760 O   0  0  0  0  0  0  0  0  0  0  0  0
   66.6620  153.0720  -48.3210 S   0  0  0  0  0  0  0  0  0  0  0  0
   63.8540  155.1790  -49.2350 H   0  0  0  0  0  0  0  0  0  0  0  0
   66.7870  154.3400  -52.7030 H   0  0  0  0  0  0  0  0  0  0  0  0
   68.0090  153.1500  -52.2910 H   0  0  0  0  0  0  0  0  0  0  0  0
   67.1730  150.3480  -48.4440 H   0  0  0  0  0  0  0  0  0  0  0  0
   68.1960  148.7540  -46.7990 H   0  0  0  0  0  0  0  0  0  0  0  0
   70.6910  148.6270  -46.6040 H   0  0  0  0  0  0  0  0  0  0  0  0
   71.1910  151.5480  -49.5400 H   0  0  0  0  0  0  0  0  0  0  0  0
   62.5830  156.2950  -47.6460 H   0  0  0  0  0  0  0  0  0  0  0  0
   61.3610  156.1600  -45.5000 H   0  0  0  0  0  0  0  0  0  0  0  0
   63.4410  152.4650  -44.5990 H   0  0  0  0  0  0  0  0  0  0  0  0
   64.5770  152.5830  -46.7600 H   0  0  0  0  0  0  0  0  0  0  0  0
   61.8700  152.2320  -43.3170 H   0  0  0  0  0  0  0  0  0  0  0  0
   61.1180  153.0880  -41.9700 H   0  0  0  0  0  0  0  0  0  0  0  0
  1  6  1  0  0  0  0
  1  7  1  0  0  0  0
  1 25  1  0  0  0  0
  2  7  2  0  0  0  0
  2  8  1  0  0  0  0
  3  8  1  0  0  0  0
  3 26  1  0  0  0  0
  3 27  1  0  0  0  0
  4 14  2  0  0  0  0
  4 15  1  0  0  0  0
  5 21  1  0  0  0  0
  5 36  1  0  0  0  0
  5 37  1  0  0  0  0
  6 16  2  0  0  0  0
  6 20  1  0  0  0  0
  7 24  1  0  0  0  0
  8  9  2  0  0  0  0
  9 24  1  0  0  0  0
 10  9  1  0  0  0  0
 10 11  1  0  0  0  0
 10 22  2  0  0  0  0
 11 12  1  0  0  0  0
 11 15  2  0  0  0  0
 12 13  2  0  0  0  0
 12 28  1  0  0  0  0
 13 14  1  0  0  0  0
 13 29  1  0  0  0  0
 14 30  1  0  0  0  0
 15 31  1  0  0  0  0
 16 17  1  0  0  0  0
 16 32  1  0  0  0  0
 17 18  2  0  0  0  0
 17 33  1  0  0  0  0
 18 19  1  0  0  0  0
 18 21  1  0  0  0  0
 19 20  2  0  0  0  0
 19 34  1  0  0  0  0
 20 35  1  0  0  0  0
 21 23  2  0  0  0  0
M  END
>  <lm5_entropy_jk>
19.089102203703476

>  <number_of_rotatable_bonds>
5

>  <IC50_NM>
200

>  <charge>
0

$$$$
