3RKB
 OpenBabel11252210453D

 39 41  0  0  0  0  0  0  0  0999 V2000
   67.3130  152.7410  -49.6390 C   0  0  0  0  0  0  0  0  0  0  0  0
   66.8260  153.5570  -50.6120 C   0  0  0  0  0  0  0  0  0  0  0  0
   65.7200  154.3030  -50.3040 N   0  0  0  0  0  0  0  0  0  0  0  0
   65.3520  154.0390  -49.0620 C   0  0  0  0  0  0  0  0  0  0  0  0
   66.3610  152.9060  -48.1840 S   0  0  0  0  0  0  0  0  0  0  0  0
   68.4620  151.8500  -49.8420 C   0  0  0  0  0  0  0  0  0  0  0  0
   67.2760  153.6000  -51.8690 N   0  0  0  0  0  0  0  0  0  0  0  0
   64.1940  154.5760  -48.5740 N   0  0  0  0  0  0  0  0  0  0  0  0
   69.1510  151.9270  -50.8430 O   0  0  0  0  0  0  0  0  0  0  0  0
   69.5510  148.8430  -47.0310 C   0  0  0  0  0  0  0  0  0  0  0  0
   70.5080  149.5630  -47.6550 N   0  0  0  0  0  0  0  0  0  0  0  0
   70.1270  150.5230  -48.5290 C   0  0  0  0  0  0  0  0  0  0  0  0
   68.7790  150.8170  -48.8030 C   0  0  0  0  0  0  0  0  0  0  0  0
   67.7830  150.0480  -48.1690 C   0  0  0  0  0  0  0  0  0  0  0  0
   68.1830  149.0540  -47.2620 C   0  0  0  0  0  0  0  0  0  0  0  0
   62.0730  153.5310  -45.5700 C   0  0  0  0  0  0  0  0  0  0  0  0
   62.5820  153.5240  -47.0390 C   0  0  0  0  0  0  0  0  0  0  0  0
   63.7060  154.5410  -47.1950 C   0  0  0  0  0  0  0  0  0  0  0  0
   63.1790  155.9410  -46.8210 C   0  0  0  0  0  0  0  0  0  0  0  0
   62.5510  156.0280  -45.4010 C   0  0  0  0  0  0  0  0  0  0  0  0
   61.5100  154.9160  -45.1840 C   0  0  0  0  0  0  0  0  0  0  0  0
   66.9670  154.3070  -52.5220 H   0  0  0  0  0  0  0  0  0  0  0  0
   68.1350  153.0880  -52.0230 H   0  0  0  0  0  0  0  0  0  0  0  0
   63.6820  155.1520  -49.2370 H   0  0  0  0  0  0  0  0  0  0  0  0
   69.8860  148.0620  -46.3390 H   0  0  0  0  0  0  0  0  0  0  0  0
   70.9260  151.0710  -49.0390 H   0  0  0  0  0  0  0  0  0  0  0  0
   66.7280  150.2000  -48.3900 H   0  0  0  0  0  0  0  0  0  0  0  0
   67.4420  148.4470  -46.7420 H   0  0  0  0  0  0  0  0  0  0  0  0
   62.8940  153.2650  -44.8880 H   0  0  0  0  0  0  0  0  0  0  0  0
   61.3120  152.7640  -45.4050 H   0  0  0  0  0  0  0  0  0  0  0  0
   62.9480  152.5270  -47.3090 H   0  0  0  0  0  0  0  0  0  0  0  0
   61.7810  153.7770  -47.7400 H   0  0  0  0  0  0  0  0  0  0  0  0
   64.4980  154.2370  -46.5080 H   0  0  0  0  0  0  0  0  0  0  0  0
   62.4330  156.2510  -47.5670 H   0  0  0  0  0  0  0  0  0  0  0  0
   63.9960  156.6600  -46.8850 H   0  0  0  0  0  0  0  0  0  0  0  0
   62.0790  157.0130  -45.2600 H   0  0  0  0  0  0  0  0  0  0  0  0
   63.3210  155.9620  -44.6210 H   0  0  0  0  0  0  0  0  0  0  0  0
   61.1840  154.9100  -44.1330 H   0  0  0  0  0  0  0  0  0  0  0  0
   60.6170  155.1480  -45.7770 H   0  0  0  0  0  0  0  0  0  0  0  0
  1  5  1  0  0  0  0
  2  3  1  0  0  0  0
  2  1  2  0  0  0  0
  3  4  2  0  0  0  0
  4  8  1  0  0  0  0
  4  5  1  0  0  0  0
  6  1  1  0  0  0  0
  6 13  1  0  0  0  0
  7  2  1  0  0  0  0
  7 22  1  0  0  0  0
  7 23  1  0  0  0  0
  8 18  1  0  0  0  0
  8 24  1  0  0  0  0
  9  6  2  0  0  0  0
 10 25  1  0  0  0  0
 11 10  2  0  0  0  0
 12 11  1  0  0  0  0
 12 26  1  0  0  0  0
 13 12  2  0  0  0  0
 13 14  1  0  0  0  0
 14 15  2  0  0  0  0
 14 27  1  0  0  0  0
 15 10  1  0  0  0  0
 15 28  1  0  0  0  0
 16 21  1  0  0  0  0
 16 29  1  0  0  0  0
 16 30  1  0  0  0  0
 17 16  1  0  0  0  0
 17 31  1  0  0  0  0
 17 32  1  0  0  0  0
 18 17  1  0  0  0  0
 18 19  1  0  0  0  0
 18 33  1  0  0  0  0
 19 20  1  0  0  0  0
 19 34  1  0  0  0  0
 19 35  1  0  0  0  0
 20 21  1  0  0  0  0
 20 36  1  0  0  0  0
 20 37  1  0  0  0  0
 21 38  1  0  0  0  0
 21 39  1  0  0  0  0
M  END
>  <lm5_entropy_jk>
20.214453483104165

>  <number_of_rotatable_bonds>
4

>  <IC50_NM>
380

>  <charge>
0

$$$$
