5QD9
 OpenBabel11252210453D

 90 92  0  0  1  0  0  0  0  0999 V2000
   27.7340    6.7590   17.5970 N   0  0  0  0  0  0  0  0  0  0  0  0
   27.7720    5.6400   16.6210 C   0  0  2  0  0  0  0  0  0  0  0  0
   28.7600    6.0060   15.4770 C   0  0  0  0  0  0  0  0  0  0  0  0
   30.1010    5.9950   15.8800 N   0  0  0  0  0  0  0  0  0  0  0  0
   31.2400    6.3460   15.0000 C   0  0  1  0  0  0  0  0  0  0  0  0
   32.1850    7.3560   15.6550 C   0  0  0  0  0  0  0  0  0  0  0  0
   31.4730    8.6590   16.0910 C   0  0  1  0  0  0  0  0  0  0  0  0
   32.4340    9.4440   17.0020 C   0  0  0  0  0  0  0  0  0  0  0  0
   31.7560   10.2620   18.1050 C   0  0  0  0  0  0  0  0  0  0  0  0
   30.8400    9.5630   19.1340 C   0  0  0  0  0  0  0  0  0  0  0  0
   31.0040    8.0480   19.3290 C   0  0  0  0  0  0  0  0  0  0  0  0
   30.8150    7.5760   20.7820 C   0  0  0  0  0  0  0  0  0  0  0  0
   29.4920    7.9600   21.4500 C   0  0  0  0  0  0  0  0  0  0  0  0
   28.3870    7.1090   21.0360 O   0  0  0  0  0  0  0  0  0  0  0  0
   27.6300    7.6600   19.9370 C   0  0  0  0  0  0  0  0  0  0  0  0
   27.4700    6.4900   18.9670 C   0  0  0  0  0  0  0  0  0  0  0  0
   27.2080    5.3690   19.3630 O   0  0  0  0  0  0  0  0  0  0  0  0
   31.0230    9.5030   14.8940 C   0  0  0  0  0  0  0  0  0  0  0  0
   31.9790    4.9920   14.7540 C   0  0  2  0  0  0  0  0  0  0  0  0
   33.0930    5.1440   13.8590 O   0  0  0  0  0  0  0  0  0  0  0  0
   31.0240    4.0470   14.0030 C   0  0  0  0  0  0  0  0  0  0  0  0
   31.8080    2.8540   13.4920 N   0  3  0  0  0  0  0  0  0  0  0  0
   31.0160    2.1130   12.4240 C   0  0  0  0  0  0  0  0  0  0  0  0
   31.2010    0.6030   12.4560 C   0  0  0  0  0  0  0  0  0  0  0  0
   29.9210    1.2070   12.9890 C   0  0  0  0  0  0  0  0  0  0  0  0
   30.9110    2.8680   11.1420 C   0  0  0  0  0  0  0  0  0  0  0  0
   32.0780    3.2630   10.4730 C   0  0  0  0  0  0  0  0  0  0  0  0
   32.0430    3.9150    9.2310 C   0  0  0  0  0  0  0  0  0  0  0  0
   30.7850    4.1600    8.6610 C   0  0  0  0  0  0  0  0  0  0  0  0
   29.6130    3.7890    9.3280 C   0  0  0  0  0  0  0  0  0  0  0  0
   29.6640    3.1540   10.5720 C   0  0  0  0  0  0  0  0  0  0  0  0
   33.3700    4.3720    8.6060 C   0  0  0  0  0  0  0  0  0  0  0  0
   34.3830    3.2050    8.5800 C   0  0  0  0  0  0  0  0  0  0  0  0
   33.1990    4.8910    7.1650 C   0  0  0  0  0  0  0  0  0  0  0  0
   33.9040    5.5120    9.5000 C   0  0  0  0  0  0  0  0  0  0  0  0
   28.4550    6.1730   14.3060 O   0  0  0  0  0  0  0  0  0  0  0  0
   26.4010    5.2550   16.0680 C   0  0  0  0  0  0  0  0  0  0  0  0
   27.4970    8.1180   17.0390 C   0  0  0  0  0  0  0  0  0  0  0  0
   28.2200    4.7460   17.1410 H   0  0  0  0  0  0  0  0  0  0  0  0
   30.3730    5.8970   16.8750 H   0  0  0  0  0  0  0  0  0  0  0  0
   30.8750    6.7660   14.0330 H   0  0  0  0  0  0  0  0  0  0  0  0
   32.6550    6.8800   16.5500 H   0  0  0  0  0  0  0  0  0  0  0  0
   32.9960    7.6040   14.9280 H   0  0  0  0  0  0  0  0  0  0  0  0
   30.5700    8.3870   16.6850 H   0  0  0  0  0  0  0  0  0  0  0  0
   33.0240   10.1550   16.3750 H   0  0  0  0  0  0  0  0  0  0  0  0
   33.1520    8.7310   17.4600 H   0  0  0  0  0  0  0  0  0  0  0  0
   31.1530   11.0650   17.6120 H   0  0  0  0  0  0  0  0  0  0  0  0
   32.5880   10.7480   18.6630 H   0  0  0  0  0  0  0  0  0  0  0  0
   31.0300   10.0680   20.1130 H   0  0  0  0  0  0  0  0  0  0  0  0
   29.7890    9.7760   18.8290 H   0  0  0  0  0  0  0  0  0  0  0  0
   32.0280    7.7480   19.0020 H   0  0  0  0  0  0  0  0  0  0  0  0
   30.2830    7.5110   18.6690 H   0  0  0  0  0  0  0  0  0  0  0  0
   30.9180    6.4660   20.7910 H   0  0  0  0  0  0  0  0  0  0  0  0
   31.6460    8.0200   21.3890 H   0  0  0  0  0  0  0  0  0  0  0  0
   29.5350    7.7370   22.5430 H   0  0  0  0  0  0  0  0  0  0  0  0
   29.2430    9.0310   21.2790 H   0  0  0  0  0  0  0  0  0  0  0  0
   28.1460    8.5360   19.4820 H   0  0  0  0  0  0  0  0  0  0  0  0
   26.6340    7.9650   20.3440 H   0  0  0  0  0  0  0  0  0  0  0  0
   32.3440    4.5560   15.7120 H   0  0  0  0  0  0  0  0  0  0  0  0
   30.5650    4.5840   13.1260 H   0  0  0  0  0  0  0  0  0  0  0  0
   30.2090    3.6920   14.6950 H   0  0  0  0  0  0  0  0  0  0  0  0
   32.7470    3.1900   13.0880 H   0  0  0  0  0  0  0  0  0  0  0  0
   32.0030    2.2240   14.3230 H   0  0  0  0  0  0  0  0  0  0  0  0
   31.9260    0.1590   13.1480 H   0  0  0  0  0  0  0  0  0  0  0  0
   31.1490    0.0600   11.4970 H   0  0  0  0  0  0  0  0  0  0  0  0
   28.9900    1.0750   12.4130 H   0  0  0  0  0  0  0  0  0  0  0  0
   29.7260    1.2040   14.0710 H   0  0  0  0  0  0  0  0  0  0  0  0
   33.0410    3.0860   10.9360 H   0  0  0  0  0  0  0  0  0  0  0  0
   30.6990    4.6590    7.6900 H   0  0  0  0  0  0  0  0  0  0  0  0
   28.6380    3.9950    8.8710 H   0  0  0  0  0  0  0  0  0  0  0  0
   28.7420    2.8820   11.0900 H   0  0  0  0  0  0  0  0  0  0  0  0
   34.0000    2.3720    7.9550 H   0  0  0  0  0  0  0  0  0  0  0  0
   35.3430    3.5530    8.1300 H   0  0  0  0  0  0  0  0  0  0  0  0
   34.6020    2.8320    9.6010 H   0  0  0  0  0  0  0  0  0  0  0  0
   33.9030    5.2100   10.5670 H   0  0  0  0  0  0  0  0  0  0  0  0
   33.2560    6.4110    9.3940 H   0  0  0  0  0  0  0  0  0  0  0  0
   34.9390    5.7780    9.2020 H   0  0  0  0  0  0  0  0  0  0  0  0
   30.2130    8.9850   14.3450 H   0  0  0  0  0  0  0  0  0  0  0  0
   30.6460   10.4830   15.2650 H   0  0  0  0  0  0  0  0  0  0  0  0
   31.8820    9.6790   14.2130 H   0  0  0  0  0  0  0  0  0  0  0  0
   27.2570    8.0680   15.9470 H   0  0  0  0  0  0  0  0  0  0  0  0
   26.6440    8.6310   17.5520 H   0  0  0  0  0  0  0  0  0  0  0  0
   28.4350    8.7250   17.1560 H   0  0  0  0  0  0  0  0  0  0  0  0
   33.9590    5.2530   14.4280 H   0  0  0  0  0  0  0  0  0  0  0  0
   26.5040    4.3900   15.3730 H   0  0  0  0  0  0  0  0  0  0  0  0
   25.9260    6.1070   15.5330 H   0  0  0  0  0  0  0  0  0  0  0  0
   25.7280    4.9540   16.9060 H   0  0  0  0  0  0  0  0  0  0  0  0
   34.1950    5.1730    6.7560 H   0  0  0  0  0  0  0  0  0  0  0  0
   32.7550    4.1020    6.5210 H   0  0  0  0  0  0  0  0  0  0  0  0
   32.5530    5.7960    7.1460 H   0  0  0  0  0  0  0  0  0  0  0  0
  1  2  1  0  0  0  0
  1 16  1  0  0  0  0
  1 38  1  0  0  0  0
  2  3  1  0  0  0  0
  2 37  1  0  0  0  0
  2 39  1  1  0  0  0
  3  4  1  0  0  0  0
  3 36  2  0  0  0  0
  4  5  1  0  0  0  0
  5  6  1  0  0  0  0
  5 19  1  0  0  0  0
  5 41  1  6  0  0  0
  6  7  1  0  0  0  0
  7  8  1  0  0  0  0
  7 18  1  0  0  0  0
  7 44  1  1  0  0  0
  8  9  1  0  0  0  0
  9 10  1  0  0  0  0
 10 11  1  0  0  0  0
 11 12  1  0  0  0  0
 12 13  1  0  0  0  0
 13 14  1  0  0  0  0
 14 15  1  0  0  0  0
 15 16  1  0  0  0  0
 16 17  2  0  0  0  0
 19 20  1  0  0  0  0
 19 21  1  0  0  0  0
 19 59  1  1  0  0  0
 21 22  1  0  0  0  0
 22 23  1  0  0  0  0
 23 24  1  0  0  0  0
 23 25  1  0  0  0  0
 23 26  1  0  0  0  0
 24 25  1  0  0  0  0
 26 27  2  0  0  0  0
 26 31  1  0  0  0  0
 27 28  1  0  0  0  0
 28 29  2  0  0  0  0
 28 32  1  0  0  0  0
 29 30  1  0  0  0  0
 30 31  2  0  0  0  0
 32 33  1  0  0  0  0
 32 34  1  0  0  0  0
 32 35  1  0  0  0  0
 40  4  1  0  0  0  0
 42  6  1  0  0  0  0
 43  6  1  0  0  0  0
 45  8  1  0  0  0  0
 46  8  1  0  0  0  0
 47  9  1  0  0  0  0
 48  9  1  0  0  0  0
 49 10  1  0  0  0  0
 50 10  1  0  0  0  0
 51 11  1  0  0  0  0
 52 11  1  0  0  0  0
 53 12  1  0  0  0  0
 54 12  1  0  0  0  0
 55 13  1  0  0  0  0
 56 13  1  0  0  0  0
 57 15  1  0  0  0  0
 58 15  1  0  0  0  0
 60 21  1  0  0  0  0
 61 21  1  0  0  0  0
 62 22  1  0  0  0  0
 63 22  1  0  0  0  0
 64 24  1  0  0  0  0
 65 24  1  0  0  0  0
 66 25  1  0  0  0  0
 67 25  1  0  0  0  0
 68 27  1  0  0  0  0
 69 29  1  0  0  0  0
 70 30  1  0  0  0  0
 71 31  1  0  0  0  0
 72 33  1  0  0  0  0
 73 33  1  0  0  0  0
 74 33  1  0  0  0  0
 75 35  1  0  0  0  0
 76 35  1  0  0  0  0
 77 35  1  0  0  0  0
 78 18  1  0  0  0  0
 79 18  1  0  0  0  0
 80 18  1  0  0  0  0
 81 38  1  0  0  0  0
 82 38  1  0  0  0  0
 83 38  1  0  0  0  0
 84 20  1  0  0  0  0
 85 37  1  0  0  0  0
 86 37  1  0  0  0  0
 87 37  1  0  0  0  0
 88 34  1  0  0  0  0
 89 34  1  0  0  0  0
 90 34  1  0  0  0  0
M  CHG  1  22   1
M  END
>  <IC50_NM>
7.5

>  <number_of_rotatable_bonds>
6

>  <lm5_entropy_jk>
43.85294660701505

>  <charge>
1

>  <old_name>
BACE_4

>  <xray_resolution>
2.6

$$$$
