1M2P
 OpenBabel11252210453D

 28 30  0  0  1  0  0  0  0  0999 V2000
   23.5070    4.5650   21.2860 N   0  3  0  0  0  0  0  0  0  0  0  0
   25.5680    3.7900   17.6300 C   0  0  0  0  0  0  0  0  0  0  0  0
   24.7890    4.9710   17.7120 C   0  0  0  0  0  0  0  0  0  0  0  0
   24.0850    5.2320   18.9080 C   0  0  0  0  0  0  0  0  0  0  0  0
   24.1690    4.3310   19.9670 C   0  0  0  0  0  0  0  0  0  0  0  0
   24.9180    3.1300   19.8580 C   0  0  0  0  0  0  0  0  0  0  0  0
   25.6220    2.8660   18.7060 C   0  0  0  0  0  0  0  0  0  0  0  0
   23.2500    6.4890   19.0270 C   0  0  0  0  0  0  0  0  0  0  0  0
   23.1930    7.3990   17.8380 C   0  0  0  0  0  0  0  0  0  0  0  0
   23.9240    7.1070   16.6640 C   0  0  0  0  0  0  0  0  0  0  0  0
   24.7350    5.8850   16.5530 C   0  0  0  0  0  0  0  0  0  0  0  0
   23.8540    8.0330   15.6010 C   0  0  0  0  0  0  0  0  0  0  0  0
   23.0630    9.1990   15.6920 C   0  0  0  0  0  0  0  0  0  0  0  0
   22.3600    9.4540   16.8570 C   0  0  0  0  0  0  0  0  0  0  0  0
   22.4110    8.5430   17.9310 C   0  0  0  0  0  0  0  0  0  0  0  0
   26.3140    3.4650   16.5680 O   0  0  0  0  0  0  0  0  0  0  0  0
   24.1170    5.2440   22.0900 O   0  5  0  0  0  0  0  0  0  0  0  0
   22.4280    4.0380   21.4790 O   0  0  0  0  0  0  0  0  0  0  0  0
   22.6590    6.7440   20.0530 O   0  0  0  0  0  0  0  0  0  0  0  0
   25.3460    5.6200   15.5200 O   0  0  0  0  0  0  0  0  0  0  0  0
   24.5670    7.7280   14.4760 O   0  0  0  0  0  0  0  0  0  0  0  0
   24.9310    2.4090   20.6840 H   0  0  0  0  0  0  0  0  0  0  0  0
   26.2060    1.9430   18.6020 H   0  0  0  0  0  0  0  0  0  0  0  0
   21.7640   10.3670   16.9580 H   0  0  0  0  0  0  0  0  0  0  0  0
   23.0170    9.9060   14.8620 H   0  0  0  0  0  0  0  0  0  0  0  0
   21.8320    8.7630   18.8360 H   0  0  0  0  0  0  0  0  0  0  0  0
   24.5600    8.5320   13.8380 H   0  0  0  0  0  0  0  0  0  0  0  0
   26.1240    4.0430   15.7240 H   0  0  0  0  0  0  0  0  0  0  0  0
  1 17  1  0  0  0  0
  1 18  2  0  0  0  0
  2  3  2  0  0  0  0
  2  7  1  0  0  0  0
  2 16  1  0  0  0  0
  3  4  1  0  0  0  0
  3 11  1  0  0  0  0
  4  5  2  0  0  0  0
  4  8  1  0  0  0  0
  5  1  1  0  0  0  0
  5  6  1  0  0  0  0
  6  7  2  0  0  0  0
  6 22  1  0  0  0  0
  7 23  1  0  0  0  0
  8  9  1  0  0  0  0
  8 19  2  0  0  0  0
  9 10  2  0  0  0  0
  9 15  1  0  0  0  0
 10 11  1  0  0  0  0
 10 12  1  0  0  0  0
 11 20  2  0  0  0  0
 12 13  2  0  0  0  0
 12 21  1  0  0  0  0
 13 14  1  0  0  0  0
 13 25  1  0  0  0  0
 14 15  2  0  0  0  0
 14 24  1  0  0  0  0
 15 26  1  0  0  0  0
 16 28  1  0  0  0  0
 21 27  1  0  0  0  0
M  CHG  2   1   1  17  -1
M  END
>  <Ki_NM>
780

>  <charge>
0

>  <number_of_rotatable_bonds>
1

>  <lm5_entropy_jk>
14.010740156892343

$$$$
