1HXW_align_H.pdb
 OpenBabel11252210453D

 98101  0  0  1  0  0  0  0  0999 V2000
    0.5450    2.7620   11.7470 C   0  0  0  0  0  0  0  0  0  0  0  0
    1.5930    1.8840   11.6370 C   0  0  0  0  0  0  0  0  0  0  0  0
    2.9480    2.6260   10.8160 S   0  0  0  0  0  0  0  0  0  0  0  0
    1.9510    4.1240   10.6550 C   0  0  0  0  0  0  0  0  0  0  0  0
    0.7480    4.0510   11.1930 N   0  0  0  0  0  0  0  0  0  0  0  0
    1.6820    0.4860   12.1240 C   0  0  0  0  0  0  0  0  0  0  0  0
    2.6530    0.5320   13.2110 O   0  0  0  0  0  0  0  0  0  0  0  0
    3.6880   -0.4070   13.2340 C   0  0  0  0  0  0  0  0  0  0  0  0
    4.6870    0.1230   14.0340 N   0  0  0  0  0  0  0  0  0  0  0  0
    5.7490   -0.7450   14.6040 C   0  0  2  0  0  0  0  0  0  0  0  0
    5.4780   -0.9510   16.1280 C   0  0  2  0  0  0  0  0  0  0  0  0
    4.2600   -1.8070   16.4880 C   0  0  0  0  0  0  0  0  0  0  0  0
    4.3770   -3.3220   16.2300 C   0  0  2  0  0  0  0  0  0  0  0  0
    6.6040   -4.4580   15.9850 C   0  0  0  0  0  0  0  0  0  0  0  0
    7.7140   -5.1860   16.7820 C   0  0  1  0  0  0  0  0  0  0  0  0
    7.1370   -6.5090   17.1210 N   0  0  0  0  0  0  0  0  0  0  0  0
    7.1500   -6.9390   18.4690 C   0  0  0  0  0  0  0  0  0  0  0  0
    3.6920   -1.4440   12.6050 O   0  0  0  0  0  0  0  0  0  0  0  0
    7.1180   -0.0460   14.3870 C   0  0  0  0  0  0  0  0  0  0  0  0
    7.3340    0.3540   12.9530 C   0  0  0  0  0  0  0  0  0  0  0  0
    7.9070   -0.5480   12.0430 C   0  0  0  0  0  0  0  0  0  0  0  0
    8.0720   -0.1810   10.7040 C   0  0  0  0  0  0  0  0  0  0  0  0
    7.6640    1.0790   10.2600 C   0  0  0  0  0  0  0  0  0  0  0  0
    7.1130    1.9890   11.1680 C   0  0  0  0  0  0  0  0  0  0  0  0
    6.9540    1.6320   12.5100 C   0  0  0  0  0  0  0  0  0  0  0  0
    5.1590    0.3670   16.6620 O   0  0  0  0  0  0  0  0  0  0  0  0
    3.1820   -4.0510   16.8990 C   0  0  0  0  0  0  0  0  0  0  0  0
    2.9020   -5.3940   16.2860 C   0  0  0  0  0  0  0  0  0  0  0  0
    3.4080   -6.5710   16.8570 C   0  0  0  0  0  0  0  0  0  0  0  0
    3.0270   -7.8170   16.3500 C   0  0  0  0  0  0  0  0  0  0  0  0
    2.1530   -7.9030   15.2620 C   0  0  0  0  0  0  0  0  0  0  0  0
    1.6970   -6.7300   14.6530 C   0  0  0  0  0  0  0  0  0  0  0  0
    2.0790   -5.4840   15.1530 C   0  0  0  0  0  0  0  0  0  0  0  0
    5.6450   -3.8490   16.7950 N   0  0  0  0  0  0  0  0  0  0  0  0
    6.5360   -4.3500   14.7690 O   0  0  0  0  0  0  0  0  0  0  0  0
    9.0580   -5.2960   16.0080 C   0  0  0  0  0  0  0  0  0  0  0  0
    9.5260   -3.9120   15.5420 C   0  0  0  0  0  0  0  0  0  0  0  0
   10.1080   -5.9480   16.9230 C   0  0  0  0  0  0  0  0  0  0  0  0
    6.8420   -8.3000   18.7710 N   0  0  0  0  0  0  0  0  0  0  0  0
    6.1530   -8.5310   20.0670 C   0  0  0  0  0  0  0  0  0  0  0  0
    7.4550   -6.1650   19.3770 O   0  0  0  0  0  0  0  0  0  0  0  0
    4.6530   -8.3820   20.0360 C   0  0  0  0  0  0  0  0  0  0  0  0
    3.9550   -7.3210   20.5440 C   0  0  0  0  0  0  0  0  0  0  0  0
    2.2390   -7.5650   20.4010 S   0  0  0  0  0  0  0  0  0  0  0  0
    2.5890   -9.1650   19.5840 C   0  0  0  0  0  0  0  0  0  0  0  0
    3.8720   -9.4400   19.4850 N   0  0  0  0  0  0  0  0  0  0  0  0
    1.4210   -9.9590   19.0870 C   0  0  0  0  0  0  0  0  0  0  0  0
    0.4140  -10.2060   20.2200 C   0  0  0  0  0  0  0  0  0  0  0  0
    1.8630  -11.2830   18.4460 C   0  0  0  0  0  0  0  0  0  0  0  0
    6.5060   -9.2430   17.6770 C   0  0  0  0  0  0  0  0  0  0  0  0
   -0.4280    2.5490   12.1960 H   0  0  0  0  0  0  0  0  0  0  0  0
    2.3720    4.9800   10.1320 H   0  0  0  0  0  0  0  0  0  0  0  0
    2.0000   -0.2310   11.3260 H   0  0  0  0  0  0  0  0  0  0  0  0
    0.7290    0.1550   12.6110 H   0  0  0  0  0  0  0  0  0  0  0  0
    4.4830    0.9530   14.6080 H   0  0  0  0  0  0  0  0  0  0  0  0
    5.7730   -1.7450   14.0980 H   0  0  0  0  0  0  0  0  0  0  0  0
    6.3950   -1.3230   16.6430 H   0  0  0  0  0  0  0  0  0  0  0  0
    3.3500   -1.4300   15.9710 H   0  0  0  0  0  0  0  0  0  0  0  0
    4.1020   -1.6600   17.5880 H   0  0  0  0  0  0  0  0  0  0  0  0
    4.3700   -3.5180   15.1250 H   0  0  0  0  0  0  0  0  0  0  0  0
    7.9110   -4.6190   17.7350 H   0  0  0  0  0  0  0  0  0  0  0  0
    7.1210   -7.1900   16.3390 H   0  0  0  0  0  0  0  0  0  0  0  0
    7.9210   -0.7410   14.7370 H   0  0  0  0  0  0  0  0  0  0  0  0
    7.1840    0.8580   15.0470 H   0  0  0  0  0  0  0  0  0  0  0  0
    8.2400   -1.5280   12.3820 H   0  0  0  0  0  0  0  0  0  0  0  0
    8.5260   -0.8810   10.0050 H   0  0  0  0  0  0  0  0  0  0  0  0
    7.7820    1.3600    9.2110 H   0  0  0  0  0  0  0  0  0  0  0  0
    6.8130    2.9850   10.8300 H   0  0  0  0  0  0  0  0  0  0  0  0
    6.5380    2.3580   13.2130 H   0  0  0  0  0  0  0  0  0  0  0  0
    6.0320    0.6800   17.1100 H   0  0  0  0  0  0  0  0  0  0  0  0
    2.2690   -3.4100   16.8210 H   0  0  0  0  0  0  0  0  0  0  0  0
    3.3900   -4.1670   17.9960 H   0  0  0  0  0  0  0  0  0  0  0  0
    4.0980   -6.5150   17.6980 H   0  0  0  0  0  0  0  0  0  0  0  0
    3.4120   -8.7310   16.8040 H   0  0  0  0  0  0  0  0  0  0  0  0
    1.8450   -8.8800   14.8910 H   0  0  0  0  0  0  0  0  0  0  0  0
    1.0320   -6.7790   13.7930 H   0  0  0  0  0  0  0  0  0  0  0  0
    1.7220   -4.5770   14.6720 H   0  0  0  0  0  0  0  0  0  0  0  0
    5.6830   -3.8950   17.8230 H   0  0  0  0  0  0  0  0  0  0  0  0
    8.9050   -5.9470   15.1110 H   0  0  0  0  0  0  0  0  0  0  0  0
   10.4910   -4.0110   15.0000 H   0  0  0  0  0  0  0  0  0  0  0  0
    8.7790   -3.4610   14.8520 H   0  0  0  0  0  0  0  0  0  0  0  0
    9.6810   -3.2340   16.4070 H   0  0  0  0  0  0  0  0  0  0  0  0
   11.1110   -5.8920   16.4550 H   0  0  0  0  0  0  0  0  0  0  0  0
   10.1540   -5.4190   17.9000 H   0  0  0  0  0  0  0  0  0  0  0  0
    9.8620   -7.0170   17.0970 H   0  0  0  0  0  0  0  0  0  0  0  0
    6.5620   -7.7860   20.8040 H   0  0  0  0  0  0  0  0  0  0  0  0
    6.4240   -9.5700   20.4120 H   0  0  0  0  0  0  0  0  0  0  0  0
    4.3590   -6.4240   20.9960 H   0  0  0  0  0  0  0  0  0  0  0  0
    0.9190   -9.3480   18.2810 H   0  0  0  0  0  0  0  0  0  0  0  0
   -0.4280  -10.8320   19.8370 H   0  0  0  0  0  0  0  0  0  0  0  0
    0.8930  -10.7520   21.0640 H   0  0  0  0  0  0  0  0  0  0  0  0
   -0.0150   -9.2530   20.6010 H   0  0  0  0  0  0  0  0  0  0  0  0
    2.3500  -11.9490   19.1950 H   0  0  0  0  0  0  0  0  0  0  0  0
    0.9770  -11.8120   18.0240 H   0  0  0  0  0  0  0  0  0  0  0  0
    2.5880  -11.0950   17.6200 H   0  0  0  0  0  0  0  0  0  0  0  0
    5.6590   -8.8820   17.0430 H   0  0  0  0  0  0  0  0  0  0  0  0
    7.4210   -9.3690   17.0420 H   0  0  0  0  0  0  0  0  0  0  0  0
    6.2340  -10.2430   18.1030 H   0  0  0  0  0  0  0  0  0  0  0  0
  1  2  2  0  0  0  0
  1  5  1  0  0  0  0
  1 51  1  0  0  0  0
  2  3  1  0  0  0  0
  2  6  1  0  0  0  0
  3  4  1  0  0  0  0
  4  5  2  0  0  0  0
  4 52  1  0  0  0  0
  6  7  1  0  0  0  0
  6 53  1  0  0  0  0
  6 54  1  0  0  0  0
  7  8  1  0  0  0  0
  8  9  1  0  0  0  0
  8 18  2  0  0  0  0
  9 10  1  0  0  0  0
  9 55  1  0  0  0  0
 10 11  1  0  0  0  0
 10 19  1  0  0  0  0
 10 56  1  6  0  0  0
 11 12  1  0  0  0  0
 11 26  1  0  0  0  0
 11 57  1  1  0  0  0
 12 13  1  0  0  0  0
 12 58  1  0  0  0  0
 12 59  1  0  0  0  0
 13 27  1  0  0  0  0
 13 34  1  0  0  0  0
 13 60  1  6  0  0  0
 14 15  1  0  0  0  0
 14 34  1  0  0  0  0
 14 35  2  0  0  0  0
 15 16  1  0  0  0  0
 15 36  1  0  0  0  0
 15 61  1  1  0  0  0
 16 17  1  0  0  0  0
 16 62  1  0  0  0  0
 17 39  1  0  0  0  0
 17 41  2  0  0  0  0
 19 20  1  0  0  0  0
 19 63  1  0  0  0  0
 19 64  1  0  0  0  0
 20 21  2  0  0  0  0
 20 25  1  0  0  0  0
 21 22  1  0  0  0  0
 21 65  1  0  0  0  0
 22 23  2  0  0  0  0
 22 66  1  0  0  0  0
 23 24  1  0  0  0  0
 23 67  1  0  0  0  0
 24 25  2  0  0  0  0
 24 68  1  0  0  0  0
 25 69  1  0  0  0  0
 26 70  1  0  0  0  0
 27 28  1  0  0  0  0
 27 71  1  0  0  0  0
 27 72  1  0  0  0  0
 28 29  2  0  0  0  0
 28 33  1  0  0  0  0
 29 30  1  0  0  0  0
 29 73  1  0  0  0  0
 30 31  2  0  0  0  0
 30 74  1  0  0  0  0
 31 32  1  0  0  0  0
 31 75  1  0  0  0  0
 32 33  2  0  0  0  0
 32 76  1  0  0  0  0
 33 77  1  0  0  0  0
 34 78  1  0  0  0  0
 36 37  1  0  0  0  0
 36 38  1  0  0  0  0
 36 79  1  0  0  0  0
 37 80  1  0  0  0  0
 37 81  1  0  0  0  0
 37 82  1  0  0  0  0
 38 83  1  0  0  0  0
 38 84  1  0  0  0  0
 38 85  1  0  0  0  0
 39 40  1  0  0  0  0
 39 50  1  0  0  0  0
 40 42  1  0  0  0  0
 40 86  1  0  0  0  0
 40 87  1  0  0  0  0
 42 43  2  0  0  0  0
 42 46  1  0  0  0  0
 43 44  1  0  0  0  0
 43 88  1  0  0  0  0
 44 45  1  0  0  0  0
 45 46  2  0  0  0  0
 45 47  1  0  0  0  0
 47 48  1  0  0  0  0
 47 49  1  0  0  0  0
 47 89  1  0  0  0  0
 48 90  1  0  0  0  0
 48 91  1  0  0  0  0
 48 92  1  0  0  0  0
 49 93  1  0  0  0  0
 49 94  1  0  0  0  0
 49 95  1  0  0  0  0
 50 96  1  0  0  0  0
 50 97  1  0  0  0  0
 50 98  1  0  0  0  0
M  END
>  <charge>
0

>  <KI_NM>
0.015

>  <number_of_rotatable_bonds>
22

>  <lm5_entropy_jk>
52.938673341193955

>  <ligand_crystal_conformation>
A

$$$$
