ra10.pdb
 OpenBabel11252210453D

 45 47  0  0  0  0  0  0  0  0999 V2000
    4.5370    9.6490   10.8430 C   0  0  0  0  0  0  0  0  0  0  0  0
    3.1990    9.7270   11.5040 C   0  0  0  0  0  0  0  0  0  0  0  0
    2.8600   10.8980   12.2300 C   0  0  0  0  0  0  0  0  0  0  0  0
    1.6370   11.0580   12.8670 C   0  0  0  0  0  0  0  0  0  0  0  0
    0.7130   10.0090   12.7910 C   0  0  0  0  0  0  0  0  0  0  0  0
   -0.6280    9.7780   13.3140 C   0  0  0  0  0  0  0  0  0  0  0  0
   -0.9810    8.5220   12.8950 C   0  0  0  0  0  0  0  0  0  0  0  0
    0.0310    7.9070   12.1170 O   0  0  0  0  0  0  0  0  0  0  0  0
    1.0670    8.8450   12.0600 C   0  0  0  0  0  0  0  0  0  0  0  0
    2.2920    8.6580   11.4020 C   0  0  0  0  0  0  0  0  0  0  0  0
    2.5820    7.4090   10.6440 C   0  0  0  0  0  0  0  0  0  0  0  0
   -2.1760    7.6430   13.1310 C   0  0  0  0  0  0  0  0  0  0  0  0
   -2.3510    7.0630   14.1840 O   0  0  0  0  0  0  0  0  0  0  0  0
   -2.9860    7.5280   12.0080 N   0  0  0  0  0  0  0  0  0  0  0  0
   -4.3440    6.9070   11.9750 C   0  0  0  0  0  0  0  0  0  0  0  0
   -4.5670    5.8400   13.0200 C   0  0  0  0  0  0  0  0  0  0  0  0
   -5.4470    6.0750   14.0860 C   0  0  0  0  0  0  0  0  0  0  0  0
   -5.6510    5.0880   15.0560 C   0  0  0  0  0  0  0  0  0  0  0  0
   -4.9820    3.8610   14.9790 C   0  0  0  0  0  0  0  0  0  0  0  0
   -4.1090    3.6270   13.9190 C   0  0  0  0  0  0  0  0  0  0  0  0
   -3.9160    4.6030   12.9300 C   0  0  0  0  0  0  0  0  0  0  0  0
   -5.3160    2.6610   16.2530 S   0  0  0  0  0  0  0  0  0  0  0  0
   -4.3980    2.9790   17.3540 O   0  0  0  0  0  0  0  0  0  0  0  0
   -6.7740    2.8050   16.4510 O   0  0  0  0  0  0  0  0  0  0  0  0
   -5.2740    1.0780   15.7420 N   0  5  0  0  0  0  0  0  0  0  0  0
   -1.3970   10.7470   14.1150 C   0  0  0  0  0  0  0  0  0  0  0  0
    3.5930   11.7110   12.2830 H   0  0  0  0  0  0  0  0  0  0  0  0
    1.4020   11.9770   13.4080 H   0  0  0  0  0  0  0  0  0  0  0  0
    5.1200   10.5940   10.9690 H   0  0  0  0  0  0  0  0  0  0  0  0
    4.4270    9.4670    9.7450 H   0  0  0  0  0  0  0  0  0  0  0  0
    5.1460    8.8160   11.2750 H   0  0  0  0  0  0  0  0  0  0  0  0
   -2.8040    8.1260   11.1870 H   0  0  0  0  0  0  0  0  0  0  0  0
   -5.9680    7.0320   14.1620 H   0  0  0  0  0  0  0  0  0  0  0  0
   -6.3480    5.3140   15.8730 H   0  0  0  0  0  0  0  0  0  0  0  0
   -3.5540    2.6880   13.8180 H   0  0  0  0  0  0  0  0  0  0  0  0
   -3.2490    4.4020   12.0870 H   0  0  0  0  0  0  0  0  0  0  0  0
    1.7790    6.6460   10.7740 H   0  0  0  0  0  0  0  0  0  0  0  0
    3.5530    6.9660   10.9780 H   0  0  0  0  0  0  0  0  0  0  0  0
    2.6730    7.6370    9.5500 H   0  0  0  0  0  0  0  0  0  0  0  0
   -4.4590    6.4630   10.9410 H   0  0  0  0  0  0  0  0  0  0  0  0
   -5.0960    7.7440   12.0700 H   0  0  0  0  0  0  0  0  0  0  0  0
   -4.3450    0.6500   16.0890 H   0  0  0  0  0  0  0  0  0  0  0  0
   -0.8060   11.0730   15.0090 H   0  0  0  0  0  0  0  0  0  0  0  0
   -1.6010   11.6660   13.5020 H   0  0  0  0  0  0  0  0  0  0  0  0
   -2.3770   10.3410   14.4580 H   0  0  0  0  0  0  0  0  0  0  0  0
  1  2  1  0  0  0  0
  2  3  2  0  0  0  0
  2 10  1  0  0  0  0
  3  4  1  0  0  0  0
  4  5  2  0  0  0  0
  5  6  1  0  0  0  0
  5  9  1  0  0  0  0
  6  7  2  0  0  0  0
  6 26  1  0  0  0  0
  7  8  1  0  0  0  0
  7 12  1  0  0  0  0
  8  9  1  0  0  0  0
  9 10  2  0  0  0  0
 10 11  1  0  0  0  0
 12 13  2  0  0  0  0
 12 14  1  0  0  0  0
 14 15  1  0  0  0  0
 15 16  1  0  0  0  0
 16 17  2  0  0  0  0
 16 21  1  0  0  0  0
 17 18  1  0  0  0  0
 18 19  2  0  0  0  0
 19 20  1  0  0  0  0
 19 22  1  0  0  0  0
 20 21  2  0  0  0  0
 22 23  2  0  0  0  0
 22 24  2  0  0  0  0
 22 25  1  0  0  0  0
 27  3  1  0  0  0  0
 28  4  1  0  0  0  0
 29  1  1  0  0  0  0
 30  1  1  0  0  0  0
 31  1  1  0  0  0  0
 32 14  1  0  0  0  0
 33 17  1  0  0  0  0
 34 18  1  0  0  0  0
 35 20  1  0  0  0  0
 36 21  1  0  0  0  0
 37 11  1  0  0  0  0
 38 11  1  0  0  0  0
 39 11  1  0  0  0  0
 40 15  1  0  0  0  0
 41 15  1  0  0  0  0
 42 25  1  0  0  0  0
 43 26  1  0  0  0  0
 44 26  1  0  0  0  0
 45 26  1  0  0  0  0
M  CHG  1  25  -1
M  END
>  <deltaG_kcalmol>
-8.8

>  <number_of_rotatable_bonds>
5

>  <charge>
-1

>  <lm5_entropy_jk>
40.81376020622596

$$$$
