3qqk.pdb
 OpenBabel11252210453D

 31 32  0  0  0  0  0  0  0  0999 V2000
   62.8380  153.4670  -46.2030 C   0  0  0  0  0  0  0  0  0  0  0  0
   62.9650  154.0980  -47.3670 C   0  0  0  0  0  0  0  0  0  0  0  0
   63.9110  155.2570  -47.5390 C   0  0  0  0  0  0  0  0  0  0  0  0
   64.4410  155.3990  -48.9160 N   0  0  0  0  0  0  0  0  0  0  0  0
   65.3810  154.5330  -49.4170 C   0  0  0  0  0  0  0  0  0  0  0  0
   65.7890  154.5810  -50.7060 N   0  0  0  0  0  0  0  0  0  0  0  0
   66.8740  153.6780  -50.8790 C   0  0  0  0  0  0  0  0  0  0  0  0
   67.2940  152.9430  -49.7440 C   0  0  0  0  0  0  0  0  0  0  0  0
   66.2910  153.3110  -48.3830 S   0  0  0  0  0  0  0  0  0  0  0  0
   67.4260  153.5370  -52.1110 N   0  0  0  0  0  0  0  0  0  0  0  0
   68.3280  151.9560  -49.7420 C   0  0  0  0  0  0  0  0  0  0  0  0
   68.4860  151.0380  -48.5650 C   0  0  0  0  0  0  0  0  0  0  0  0
   67.4050  150.2750  -48.1090 C   0  0  0  0  0  0  0  0  0  0  0  0
   67.5900  149.3380  -47.0890 C   0  0  0  0  0  0  0  0  0  0  0  0
   68.8570  149.1480  -46.5320 C   0  0  0  0  0  0  0  0  0  0  0  0
   69.9360  149.9150  -46.9820 C   0  0  0  0  0  0  0  0  0  0  0  0
   69.7540  150.8660  -47.9910 C   0  0  0  0  0  0  0  0  0  0  0  0
   69.0760  151.8030  -50.7080 O   0  0  0  0  0  0  0  0  0  0  0  0
   62.1400  152.6510  -46.0500 H   0  0  0  0  0  0  0  0  0  0  0  0
   63.4210  153.7300  -45.3190 H   0  0  0  0  0  0  0  0  0  0  0  0
   62.3790  153.8430  -48.2510 H   0  0  0  0  0  0  0  0  0  0  0  0
   63.3390  156.2080  -47.3210 H   0  0  0  0  0  0  0  0  0  0  0  0
   64.7670  155.1860  -46.8220 H   0  0  0  0  0  0  0  0  0  0  0  0
   63.7260  155.7790  -49.5780 H   0  0  0  0  0  0  0  0  0  0  0  0
   67.1040  154.1200  -52.9060 H   0  0  0  0  0  0  0  0  0  0  0  0
   68.2570  152.9430  -52.2370 H   0  0  0  0  0  0  0  0  0  0  0  0
   66.4120  150.3850  -48.5410 H   0  0  0  0  0  0  0  0  0  0  0  0
   66.7450  148.7540  -46.7210 H   0  0  0  0  0  0  0  0  0  0  0  0
   68.9990  148.3980  -45.7490 H   0  0  0  0  0  0  0  0  0  0  0  0
   70.9140  149.7630  -46.5290 H   0  0  0  0  0  0  0  0  0  0  0  0
   70.5980  151.4720  -48.3290 H   0  0  0  0  0  0  0  0  0  0  0  0
  1  2  2  0  0  0  0
  1 19  1  0  0  0  0
  1 20  1  0  0  0  0
  2 21  1  0  0  0  0
  3  2  1  0  0  0  0
  3 22  1  0  0  0  0
  3 23  1  0  0  0  0
  4  3  1  0  0  0  0
  4 24  1  0  0  0  0
  5  4  1  0  0  0  0
  5  9  1  0  0  0  0
  6  5  2  0  0  0  0
  7  6  1  0  0  0  0
  7  8  2  0  0  0  0
  8  9  1  0  0  0  0
 10  7  1  0  0  0  0
 10 25  1  0  0  0  0
 10 26  1  0  0  0  0
 11  8  1  0  0  0  0
 11 12  1  0  0  0  0
 12 17  2  0  0  0  0
 12 13  1  0  0  0  0
 13 14  2  0  0  0  0
 13 27  1  0  0  0  0
 14 15  1  0  0  0  0
 14 28  1  0  0  0  0
 15 29  1  0  0  0  0
 16 15  2  0  0  0  0
 16 30  1  0  0  0  0
 17 16  1  0  0  0  0
 17 31  1  0  0  0  0
 18 11  2  0  0  0  0
M  END
>  <lm5_entropy_jk>
22.397995528352578

>  <number_of_rotatable_bonds>
5

>  <IC50_NM>
15000

>  <charge>
0

$$$$
