4LAU
 OpenBabel11252210453D

 35 36  0  0  0  0  0  0  0  0999 V2000
   14.3620  -11.9970   19.2720 Cl  0  0  0  0  0  0  0  0  0  0  0  0
   18.3730   -5.0050   12.4610 C   0  0  0  0  0  0  0  0  0  0  0  0
   17.6550   -6.0620   13.0460 C   0  0  0  0  0  0  0  0  0  0  0  0
   16.3450   -6.3210   12.6040 C   0  0  0  0  0  0  0  0  0  0  0  0
   17.8050   -4.2280   11.4350 C   0  0  0  0  0  0  0  0  0  0  0  0
   15.7630   -5.5350   11.5920 C   0  0  0  0  0  0  0  0  0  0  0  0
   16.4960   -4.4890   11.0100 C   0  0  0  0  0  0  0  0  0  0  0  0
   18.3380   -6.9090   14.1240 C   0  0  0  0  0  0  0  0  0  0  0  0
   17.4320   -7.7520   14.9410 N   0  0  0  0  0  0  0  0  0  0  0  0
   17.4960   -9.1220   15.0200 C   0  0  0  0  0  0  0  0  0  0  0  0
   18.1820   -9.7870   14.2650 O   0  0  0  0  0  0  0  0  0  0  0  0
   16.2370   -9.1000   17.2150 C   0  0  0  0  0  0  0  0  0  0  0  0
   16.6710   -9.7820   16.0680 C   0  0  0  0  0  0  0  0  0  0  0  0
   16.3590  -11.1450   15.9020 C   0  0  0  0  0  0  0  0  0  0  0  0
   15.4360   -9.7650   18.1480 C   0  0  0  0  0  0  0  0  0  0  0  0
   15.6130  -11.8100   16.8780 C   0  0  0  0  0  0  0  0  0  0  0  0
   15.1540  -11.1210   17.9960 C   0  0  0  0  0  0  0  0  0  0  0  0
   16.7160   -7.8260   17.4630 O   0  0  0  0  0  0  0  0  0  0  0  0
   16.4730   -6.9850   18.6370 C   0  0  0  0  0  0  0  0  0  0  0  0
   15.3580   -5.9620   18.4830 C   0  0  0  0  0  0  0  0  0  0  0  0
   14.9260   -5.4860   19.5220 O   0  0  0  0  0  0  0  0  0  0  0  0
   14.8840   -5.7570   17.3830 O   0  5  0  0  0  0  0  0  0  0  0  0
   15.6830   -3.3470    9.7130 Br  0  0  0  0  0  0  0  0  0  0  0  0
   17.3600   -6.3900   18.8550 H   0  0  0  0  0  0  0  0  0  0  0  0
   19.3700   -4.7820   12.8220 H   0  0  0  0  0  0  0  0  0  0  0  0
   15.7670   -7.1140   13.0660 H   0  0  0  0  0  0  0  0  0  0  0  0
   18.3540   -3.3910   11.0070 H   0  0  0  0  0  0  0  0  0  0  0  0
   14.7340   -5.7180   11.2850 H   0  0  0  0  0  0  0  0  0  0  0  0
   18.8980   -6.2400   14.7920 H   0  0  0  0  0  0  0  0  0  0  0  0
   16.8700   -7.3300   15.6780 H   0  0  0  0  0  0  0  0  0  0  0  0
   16.7080  -11.6910   15.0220 H   0  0  0  0  0  0  0  0  0  0  0  0
   15.0910   -9.2540   19.0320 H   0  0  0  0  0  0  0  0  0  0  0  0
   15.4000  -12.8730   16.7730 H   0  0  0  0  0  0  0  0  0  0  0  0
   16.2610   -7.5620   19.5360 H   0  0  0  0  0  0  0  0  0  0  0  0
   19.0830   -7.5650   13.6550 H   0  0  0  0  0  0  0  0  0  0  0  0
  1 17  1  0  0  0  0
  2  3  2  0  0  0  0
  2  5  1  0  0  0  0
  2 25  1  0  0  0  0
  3  4  1  0  0  0  0
  3  8  1  0  0  0  0
  4  6  2  0  0  0  0
  4 26  1  0  0  0  0
  5  7  2  0  0  0  0
  5 27  1  0  0  0  0
  6  7  1  0  0  0  0
  6 28  1  0  0  0  0
  7 23  1  0  0  0  0
  8  9  1  0  0  0  0
  8 29  1  0  0  0  0
  8 35  1  0  0  0  0
  9 10  1  0  0  0  0
  9 30  1  0  0  0  0
 10 11  2  0  0  0  0
 10 13  1  0  0  0  0
 12 13  2  0  0  0  0
 12 15  1  0  0  0  0
 12 18  1  0  0  0  0
 13 14  1  0  0  0  0
 14 16  2  0  0  0  0
 14 31  1  0  0  0  0
 15 17  2  0  0  0  0
 15 32  1  0  0  0  0
 16 17  1  0  0  0  0
 16 33  1  0  0  0  0
 18 19  1  0  0  0  0
 19 20  1  0  0  0  0
 19 24  1  0  0  0  0
 19 34  1  0  0  0  0
 20 21  2  0  0  0  0
 20 22  1  0  0  0  0
M  CHG  1  22  -1
M  END
>  <deltaG_kcalmol>
-9.95

>  <charge>
-1

>  <lm5_entropy_jk>
25.63780735381752

>  <number_of_rotatable_bonds>
7

$$$$
