4LAU
 OpenBabel11252210453D

 35 36  0  0  0  0  0  0  0  0999 V2000
   14.3260  -11.7890   19.0730 Cl  0  0  0  0  0  0  0  0  0  0  0  0
   18.7010   -4.8250   12.5990 C   0  0  0  0  0  0  0  0  0  0  0  0
   18.1300   -6.0170   13.0770 C   0  0  0  0  0  0  0  0  0  0  0  0
   16.9340   -6.4780   12.5010 C   0  0  0  0  0  0  0  0  0  0  0  0
   18.0740   -4.0930   11.5730 C   0  0  0  0  0  0  0  0  0  0  0  0
   16.2920   -5.7440   11.4880 C   0  0  0  0  0  0  0  0  0  0  0  0
   16.8600   -4.5440   11.0340 C   0  0  0  0  0  0  0  0  0  0  0  0
   18.8070   -6.7840   14.2140 C   0  0  0  0  0  0  0  0  0  0  0  0
   17.8770   -7.6000   15.0380 N   0  0  0  0  0  0  0  0  0  0  0  0
   17.7730   -8.9690   14.9990 C   0  0  0  0  0  0  0  0  0  0  0  0
   18.3510   -9.6370   14.1610 O   0  0  0  0  0  0  0  0  0  0  0  0
   16.5160   -8.9700   17.2120 C   0  0  0  0  0  0  0  0  0  0  0  0
   16.9000   -9.6180   16.0250 C   0  0  0  0  0  0  0  0  0  0  0  0
   16.4830  -10.9420   15.7900 C   0  0  0  0  0  0  0  0  0  0  0  0
   15.6690   -9.6250   18.1130 C   0  0  0  0  0  0  0  0  0  0  0  0
   15.6740  -11.5980   16.7260 C   0  0  0  0  0  0  0  0  0  0  0  0
   15.2640  -10.9370   17.8790 C   0  0  0  0  0  0  0  0  0  0  0  0
   17.0690   -7.7420   17.5280 O   0  0  0  0  0  0  0  0  0  0  0  0
   16.7360   -6.8860   18.6690 C   0  0  0  0  0  0  0  0  0  0  0  0
   15.5600   -5.9440   18.4590 C   0  0  0  0  0  0  0  0  0  0  0  0
   15.0390   -5.5070   19.4720 O   0  0  0  0  0  0  0  0  0  0  0  0
   15.1340   -5.7540   17.3360 O   0  5  0  0  0  0  0  0  0  0  0  0
   15.9250   -3.4640    9.7640 Br  0  0  0  0  0  0  0  0  0  0  0  0
   17.5770   -6.2310   18.8970 H   0  0  0  0  0  0  0  0  0  0  0  0
   19.6010   -4.4370   13.0640 H   0  0  0  0  0  0  0  0  0  0  0  0
   16.4870   -7.3950   12.8710 H   0  0  0  0  0  0  0  0  0  0  0  0
   18.4940   -3.1430   11.2430 H   0  0  0  0  0  0  0  0  0  0  0  0
   15.3390   -6.0870   11.0880 H   0  0  0  0  0  0  0  0  0  0  0  0
   19.3240   -6.0700   14.8680 H   0  0  0  0  0  0  0  0  0  0  0  0
   17.3800   -7.1830   15.8220 H   0  0  0  0  0  0  0  0  0  0  0  0
   16.7870  -11.4670   14.8810 H   0  0  0  0  0  0  0  0  0  0  0  0
   15.3650   -9.1430   19.0290 H   0  0  0  0  0  0  0  0  0  0  0  0
   15.3670  -12.6280   16.5560 H   0  0  0  0  0  0  0  0  0  0  0  0
   16.5300   -7.4550   19.5740 H   0  0  0  0  0  0  0  0  0  0  0  0
   19.5870   -7.4420   13.8060 H   0  0  0  0  0  0  0  0  0  0  0  0
  1 17  1  0  0  0  0
  2  3  2  0  0  0  0
  2  5  1  0  0  0  0
  2 25  1  0  0  0  0
  3  4  1  0  0  0  0
  3  8  1  0  0  0  0
  4  6  2  0  0  0  0
  4 26  1  0  0  0  0
  5  7  2  0  0  0  0
  5 27  1  0  0  0  0
  6  7  1  0  0  0  0
  6 28  1  0  0  0  0
  7 23  1  0  0  0  0
  8  9  1  0  0  0  0
  8 29  1  0  0  0  0
  8 35  1  0  0  0  0
  9 10  1  0  0  0  0
  9 30  1  0  0  0  0
 10 11  2  0  0  0  0
 10 13  1  0  0  0  0
 12 13  2  0  0  0  0
 12 15  1  0  0  0  0
 12 18  1  0  0  0  0
 13 14  1  0  0  0  0
 14 16  2  0  0  0  0
 14 31  1  0  0  0  0
 15 17  2  0  0  0  0
 15 32  1  0  0  0  0
 16 17  1  0  0  0  0
 16 33  1  0  0  0  0
 18 19  1  0  0  0  0
 19 20  1  0  0  0  0
 19 24  1  0  0  0  0
 19 34  1  0  0  0  0
 20 21  2  0  0  0  0
 20 22  1  0  0  0  0
M  CHG  1  22  -1
M  END
>  <deltaG_kcalmol>
-9.95

>  <charge>
-1

>  <lm5_entropy_jk>
25.63780735381752

>  <number_of_rotatable_bonds>
7

$$$$
