1M2P
 OpenBabel11252210453D

 28 30  0  0  1  0  0  0  0  0999 V2000
   23.6150    4.4960   21.2960 N   0  3  0  0  0  0  0  0  0  0  0  0
   25.6430    3.7910   17.6070 C   0  0  0  0  0  0  0  0  0  0  0  0
   24.8290    4.9470   17.7020 C   0  0  0  0  0  0  0  0  0  0  0  0
   24.1370    5.1860   18.9100 C   0  0  0  0  0  0  0  0  0  0  0  0
   24.2710    4.2920   19.9700 C   0  0  0  0  0  0  0  0  0  0  0  0
   25.0710    3.1250   19.8540 C   0  0  0  0  0  0  0  0  0  0  0  0
   25.7580    2.8780   18.6890 C   0  0  0  0  0  0  0  0  0  0  0  0
   23.2640    6.4150   19.0420 C   0  0  0  0  0  0  0  0  0  0  0  0
   23.1910    7.3450   17.8680 C   0  0  0  0  0  0  0  0  0  0  0  0
   23.9200    7.0790   16.6870 C   0  0  0  0  0  0  0  0  0  0  0  0
   24.7400    5.8670   16.5490 C   0  0  0  0  0  0  0  0  0  0  0  0
   23.8360    8.0210   15.6390 C   0  0  0  0  0  0  0  0  0  0  0  0
   23.0310    9.1760   15.7500 C   0  0  0  0  0  0  0  0  0  0  0  0
   22.3250    9.4020   16.9190 C   0  0  0  0  0  0  0  0  0  0  0  0
   22.3940    8.4770   17.9810 C   0  0  0  0  0  0  0  0  0  0  0  0
   26.3700    3.4800   16.5280 O   0  0  0  0  0  0  0  0  0  0  0  0
   24.2120    5.1800   22.1050 O   0  5  0  0  0  0  0  0  0  0  0  0
   22.5520    3.9360   21.4900 O   0  0  0  0  0  0  0  0  0  0  0  0
   22.6550    6.6340   20.0660 O   0  0  0  0  0  0  0  0  0  0  0  0
   25.3380    5.6150   15.5050 O   0  0  0  0  0  0  0  0  0  0  0  0
   24.5490    7.7430   14.5080 O   0  0  0  0  0  0  0  0  0  0  0  0
   25.1370    2.4140   20.6880 H   0  0  0  0  0  0  0  0  0  0  0  0
   26.3790    1.9800   18.5790 H   0  0  0  0  0  0  0  0  0  0  0  0
   21.7140   10.3040   17.0330 H   0  0  0  0  0  0  0  0  0  0  0  0
   22.9740    9.8950   14.9330 H   0  0  0  0  0  0  0  0  0  0  0  0
   21.8190    8.6780   18.8920 H   0  0  0  0  0  0  0  0  0  0  0  0
   24.5400    8.5590   13.8880 H   0  0  0  0  0  0  0  0  0  0  0  0
   26.1410    4.0460   15.6840 H   0  0  0  0  0  0  0  0  0  0  0  0
  1 17  1  0  0  0  0
  1 18  2  0  0  0  0
  2  3  2  0  0  0  0
  2  7  1  0  0  0  0
  2 16  1  0  0  0  0
  3  4  1  0  0  0  0
  3 11  1  0  0  0  0
  4  5  2  0  0  0  0
  4  8  1  0  0  0  0
  5  1  1  0  0  0  0
  5  6  1  0  0  0  0
  6  7  2  0  0  0  0
  6 22  1  0  0  0  0
  7 23  1  0  0  0  0
  8  9  1  0  0  0  0
  8 19  2  0  0  0  0
  9 10  2  0  0  0  0
  9 15  1  0  0  0  0
 10 11  1  0  0  0  0
 10 12  1  0  0  0  0
 11 20  2  0  0  0  0
 12 13  2  0  0  0  0
 12 21  1  0  0  0  0
 13 14  1  0  0  0  0
 13 25  1  0  0  0  0
 14 15  2  0  0  0  0
 14 24  1  0  0  0  0
 15 26  1  0  0  0  0
 16 28  1  0  0  0  0
 21 27  1  0  0  0  0
M  CHG  2   1   1  17  -1
M  END
>  <Ki_NM>
780

>  <charge>
0

>  <number_of_rotatable_bonds>
1

>  <lm5_entropy_jk>
14.010740156892343

$$$$
