5QDA
 OpenBabel11252210453D

 79 82  0  0  1  0  0  0  0  0999 V2000
   30.5040    5.8180   15.8800 N   0  0  0  0  0  0  0  0  0  0  0  0
   31.6330    5.9670   14.9580 C   0  0  1  0  0  0  0  0  0  0  0  0
   32.6950    6.8560   15.6410 C   0  0  0  0  0  0  0  0  0  0  0  0
   32.1410    8.1620   16.1770 C   0  0  0  0  0  0  0  0  0  0  0  0
   32.1100    8.3940   17.5550 C   0  0  0  0  0  0  0  0  0  0  0  0
   31.6380    9.6080   18.0750 C   0  0  0  0  0  0  0  0  0  0  0  0
   31.1730   10.5910   17.1910 C   0  0  0  0  0  0  0  0  0  0  0  0
   31.1810   10.3650   15.8060 C   0  0  0  0  0  0  0  0  0  0  0  0
   31.6770    9.1520   15.3050 C   0  0  0  0  0  0  0  0  0  0  0  0
   31.6630    9.8940   19.5730 C   0  0  0  0  0  0  0  0  0  0  0  0
   31.2150    8.7330   20.4930 C   0  0  0  0  0  0  0  0  0  0  0  0
   29.7090    8.4760   20.2950 C   0  0  0  0  0  0  0  0  0  0  0  0
   29.3360    7.0550   20.7420 C   0  0  0  0  0  0  0  0  0  0  0  0
   27.9690    6.7460   20.2680 N   0  0  0  0  0  0  0  0  0  0  0  0
   27.6280    6.3510   18.9960 C   0  0  0  0  0  0  0  0  0  0  0  0
   26.3630    5.9920   18.8580 N   0  0  0  0  0  0  0  0  0  0  0  0
   25.9510    5.5840   17.6600 C   0  0  0  0  0  0  0  0  0  0  0  0
   26.8120    5.4900   16.5640 C   0  0  0  0  0  0  0  0  0  0  0  0
   28.1670    5.8500   16.6900 C   0  0  0  0  0  0  0  0  0  0  0  0
   28.5450    6.3110   17.9590 C   0  0  0  0  0  0  0  0  0  0  0  0
   29.1700    5.7610   15.5240 C   0  0  0  0  0  0  0  0  0  0  0  0
   28.8260    5.6440   14.3510 O   0  0  0  0  0  0  0  0  0  0  0  0
   24.6140    5.2640   17.5420 O   0  0  0  0  0  0  0  0  0  0  0  0
   23.8950    5.1570   16.2830 C   0  0  0  0  0  0  0  0  0  0  0  0
   32.2070    4.5800   14.5680 C   0  0  2  0  0  0  0  0  0  0  0  0
   33.3290    4.7070   13.7110 O   0  0  0  0  0  0  0  0  0  0  0  0
   31.1930    3.7620   13.7680 C   0  0  0  0  0  0  0  0  0  0  0  0
   31.6960    2.3580   13.4230 N   0  3  0  0  0  0  0  0  0  0  0  0
   30.7140    1.7540   12.3930 C   0  0  0  0  0  0  0  0  0  0  0  0
   30.6970    2.4610   11.0480 C   0  0  0  0  0  0  0  0  0  0  0  0
   31.8610    3.0180   10.4980 C   0  0  0  0  0  0  0  0  0  0  0  0
   31.8530    3.6210    9.2310 C   0  0  0  0  0  0  0  0  0  0  0  0
   30.6430    3.6960    8.5230 C   0  0  0  0  0  0  0  0  0  0  0  0
   29.4640    3.1590    9.0690 C   0  0  0  0  0  0  0  0  0  0  0  0
   29.4980    2.5360   10.3270 C   0  0  0  0  0  0  0  0  0  0  0  0
   33.1510    4.1730    8.6260 C   0  0  0  0  0  0  0  0  0  0  0  0
   33.7010    5.3510    9.4410 C   0  0  0  0  0  0  0  0  0  0  0  0
   34.2670    3.1100    8.5610 C   0  0  0  0  0  0  0  0  0  0  0  0
   30.7000    5.9000   16.8740 H   0  0  0  0  0  0  0  0  0  0  0  0
   31.2860    6.4750   14.0460 H   0  0  0  0  0  0  0  0  0  0  0  0
   33.1850    6.2990   16.4470 H   0  0  0  0  0  0  0  0  0  0  0  0
   33.4930    7.0860   14.9230 H   0  0  0  0  0  0  0  0  0  0  0  0
   32.4770    7.6320   18.2250 H   0  0  0  0  0  0  0  0  0  0  0  0
   30.8170   11.5430   17.5780 H   0  0  0  0  0  0  0  0  0  0  0  0
   30.8190   11.1340   15.1260 H   0  0  0  0  0  0  0  0  0  0  0  0
   31.7140    8.9840   14.2350 H   0  0  0  0  0  0  0  0  0  0  0  0
   32.6730   10.2100   19.8520 H   0  0  0  0  0  0  0  0  0  0  0  0
   31.0270   10.7610   19.7730 H   0  0  0  0  0  0  0  0  0  0  0  0
   31.8120    7.8330   20.2900 H   0  0  0  0  0  0  0  0  0  0  0  0
   31.4140    8.9890   21.5420 H   0  0  0  0  0  0  0  0  0  0  0  0
   29.1110    9.2210   20.8420 H   0  0  0  0  0  0  0  0  0  0  0  0
   29.4430    8.6250   19.2370 H   0  0  0  0  0  0  0  0  0  0  0  0
   30.0580    6.3300   20.3380 H   0  0  0  0  0  0  0  0  0  0  0  0
   29.4060    6.9890   21.8400 H   0  0  0  0  0  0  0  0  0  0  0  0
   27.1740    7.0650   20.8090 H   0  0  0  0  0  0  0  0  0  0  0  0
   26.4480    5.1270   15.6140 H   0  0  0  0  0  0  0  0  0  0  0  0
   29.5500    6.6740   18.1310 H   0  0  0  0  0  0  0  0  0  0  0  0
   32.4850    4.0700   15.5050 H   0  0  0  0  0  0  0  0  0  0  0  0
   30.2460    3.7080   14.3220 H   0  0  0  0  0  0  0  0  0  0  0  0
   30.9940    4.2870   12.8260 H   0  0  0  0  0  0  0  0  0  0  0  0
   31.7770    1.7850   14.2900 H   0  0  0  0  0  0  0  0  0  0  0  0
   32.6620    2.4320   13.0270 H   0  0  0  0  0  0  0  0  0  0  0  0
   29.7030    1.7670   12.8170 H   0  0  0  0  0  0  0  0  0  0  0  0
   30.9590    0.6980   12.2210 H   0  0  0  0  0  0  0  0  0  0  0  0
   32.7950    3.0050   11.0400 H   0  0  0  0  0  0  0  0  0  0  0  0
   30.6160    4.1780    7.5470 H   0  0  0  0  0  0  0  0  0  0  0  0
   28.5270    3.2200    8.5130 H   0  0  0  0  0  0  0  0  0  0  0  0
   28.5830    2.1110   10.7380 H   0  0  0  0  0  0  0  0  0  0  0  0
   32.9380    4.5270    7.6030 H   0  0  0  0  0  0  0  0  0  0  0  0
   22.8130    5.0530   16.4620 H   0  0  0  0  0  0  0  0  0  0  0  0
   24.0350    6.0610   15.6720 H   0  0  0  0  0  0  0  0  0  0  0  0
   24.2230    4.2800   15.7110 H   0  0  0  0  0  0  0  0  0  0  0  0
   33.0050    6.1990    9.3930 H   0  0  0  0  0  0  0  0  0  0  0  0
   33.8280    5.0880   10.4950 H   0  0  0  0  0  0  0  0  0  0  0  0
   34.6660    5.6950    9.0510 H   0  0  0  0  0  0  0  0  0  0  0  0
   35.1630    3.5040    8.0610 H   0  0  0  0  0  0  0  0  0  0  0  0
   33.9400    2.2360    7.9830 H   0  0  0  0  0  0  0  0  0  0  0  0
   34.5650    2.7610    9.5560 H   0  0  0  0  0  0  0  0  0  0  0  0
   34.1340    4.8950   14.2740 H   0  0  0  0  0  0  0  0  0  0  0  0
  1  2  1  0  0  0  0
  1 21  1  0  0  0  0
  2  3  1  0  0  0  0
  2 25  1  0  0  0  0
  2 40  1  6  0  0  0
  3  4  1  0  0  0  0
  4  5  2  0  0  0  0
  4  9  1  0  0  0  0
  5  6  1  0  0  0  0
  6  7  2  0  0  0  0
  6 10  1  0  0  0  0
  7  8  1  0  0  0  0
  8  9  2  0  0  0  0
 10 11  1  0  0  0  0
 11 12  1  0  0  0  0
 12 13  1  0  0  0  0
 13 14  1  0  0  0  0
 14 15  1  0  0  0  0
 15 16  2  0  0  0  0
 15 20  1  0  0  0  0
 16 17  1  0  0  0  0
 17 18  2  0  0  0  0
 17 23  1  0  0  0  0
 18 19  1  0  0  0  0
 19 20  2  0  0  0  0
 19 21  1  0  0  0  0
 21 22  2  0  0  0  0
 23 24  1  0  0  0  0
 25 26  1  0  0  0  0
 25 27  1  0  0  0  0
 25 58  1  1  0  0  0
 27 28  1  0  0  0  0
 28 29  1  0  0  0  0
 29 30  1  0  0  0  0
 30 31  2  0  0  0  0
 30 35  1  0  0  0  0
 31 32  1  0  0  0  0
 32 33  2  0  0  0  0
 32 36  1  0  0  0  0
 33 34  1  0  0  0  0
 34 35  2  0  0  0  0
 36 37  1  0  0  0  0
 36 38  1  0  0  0  0
 39  1  1  0  0  0  0
 41  3  1  0  0  0  0
 42  3  1  0  0  0  0
 43  5  1  0  0  0  0
 44  7  1  0  0  0  0
 45  8  1  0  0  0  0
 46  9  1  0  0  0  0
 47 10  1  0  0  0  0
 48 10  1  0  0  0  0
 49 11  1  0  0  0  0
 50 11  1  0  0  0  0
 51 12  1  0  0  0  0
 52 12  1  0  0  0  0
 53 13  1  0  0  0  0
 54 13  1  0  0  0  0
 55 14  1  0  0  0  0
 56 18  1  0  0  0  0
 57 20  1  0  0  0  0
 59 27  1  0  0  0  0
 60 27  1  0  0  0  0
 61 28  1  0  0  0  0
 62 28  1  0  0  0  0
 63 29  1  0  0  0  0
 64 29  1  0  0  0  0
 65 31  1  0  0  0  0
 66 33  1  0  0  0  0
 67 34  1  0  0  0  0
 68 35  1  0  0  0  0
 69 36  1  0  0  0  0
 70 24  1  0  0  0  0
 71 24  1  0  0  0  0
 72 24  1  0  0  0  0
 73 37  1  0  0  0  0
 74 37  1  0  0  0  0
 75 37  1  0  0  0  0
 76 38  1  0  0  0  0
 77 38  1  0  0  0  0
 78 38  1  0  0  0  0
 79 26  1  0  0  0  0
M  CHG  1  28   1
M  END
>  <IC50_NM>
7.8

>  <number_of_rotatable_bonds>
7

>  <lm5_entropy_jk>
39.3856002100702

>  <charge>
1

>  <old_name>
BACE_12

>  <xray_resolution>
2.1

$$$$
