5QDA
 OpenBabel11252210453D

 79 82  0  0  1  0  0  0  0  0999 V2000
   30.5710    5.8520   16.0350 N   0  0  0  0  0  0  0  0  0  0  0  0
   31.7090    5.9790   15.1140 C   0  0  1  0  0  0  0  0  0  0  0  0
   32.7930    6.8420   15.7940 C   0  0  0  0  0  0  0  0  0  0  0  0
   32.2540    8.1350   16.3730 C   0  0  0  0  0  0  0  0  0  0  0  0
   32.1960    8.3000   17.7580 C   0  0  0  0  0  0  0  0  0  0  0  0
   31.7400    9.4930   18.3310 C   0  0  0  0  0  0  0  0  0  0  0  0
   31.3180   10.5290   17.4870 C   0  0  0  0  0  0  0  0  0  0  0  0
   31.3570   10.3750   16.0900 C   0  0  0  0  0  0  0  0  0  0  0  0
   31.8340    9.1750   15.5370 C   0  0  0  0  0  0  0  0  0  0  0  0
   31.7750    9.7000   19.8440 C   0  0  0  0  0  0  0  0  0  0  0  0
   31.2530    8.5340   20.7140 C   0  0  0  0  0  0  0  0  0  0  0  0
   29.7300    8.4070   20.5260 C   0  0  0  0  0  0  0  0  0  0  0  0
   29.2660    6.9960   20.9020 C   0  0  0  0  0  0  0  0  0  0  0  0
   27.9020    6.7840   20.3750 N   0  0  0  0  0  0  0  0  0  0  0  0
   27.5950    6.4020   19.0920 C   0  0  0  0  0  0  0  0  0  0  0  0
   26.3430    6.0170   18.9250 N   0  0  0  0  0  0  0  0  0  0  0  0
   25.9670    5.6050   17.7180 C   0  0  0  0  0  0  0  0  0  0  0  0
   26.8570    5.5290   16.6410 C   0  0  0  0  0  0  0  0  0  0  0  0
   28.2020    5.9220   16.7980 C   0  0  0  0  0  0  0  0  0  0  0  0
   28.5350    6.3910   18.0740 C   0  0  0  0  0  0  0  0  0  0  0  0
   29.2430    5.8570   15.6590 C   0  0  0  0  0  0  0  0  0  0  0  0
   28.9360    5.8010   14.4750 O   0  0  0  0  0  0  0  0  0  0  0  0
   24.6440    5.2360   17.5820 O   0  0  0  0  0  0  0  0  0  0  0  0
   23.9420    5.0890   16.3180 C   0  0  0  0  0  0  0  0  0  0  0  0
   32.2410    4.5770   14.7030 C   0  0  2  0  0  0  0  0  0  0  0  0
   33.4230    4.6680   13.9210 O   0  0  0  0  0  0  0  0  0  0  0  0
   31.2330    3.8310   13.8130 C   0  0  0  0  0  0  0  0  0  0  0  0
   31.6710    2.4080   13.4190 N   0  3  0  0  0  0  0  0  0  0  0  0
   30.6790    1.8830   12.3500 C   0  0  0  0  0  0  0  0  0  0  0  0
   30.7090    2.6340   11.0300 C   0  0  0  0  0  0  0  0  0  0  0  0
   31.9120    3.1160   10.4940 C   0  0  0  0  0  0  0  0  0  0  0  0
   31.9420    3.7920    9.2650 C   0  0  0  0  0  0  0  0  0  0  0  0
   30.7380    3.9850    8.5680 C   0  0  0  0  0  0  0  0  0  0  0  0
   29.5250    3.5070    9.0920 C   0  0  0  0  0  0  0  0  0  0  0  0
   29.5150    2.8300   10.3230 C   0  0  0  0  0  0  0  0  0  0  0  0
   33.2690    4.3320    8.7130 C   0  0  0  0  0  0  0  0  0  0  0  0
   33.8730    5.3880    9.6470 C   0  0  0  0  0  0  0  0  0  0  0  0
   34.3360    3.2330    8.5300 C   0  0  0  0  0  0  0  0  0  0  0  0
   30.7510    5.9210   17.0350 H   0  0  0  0  0  0  0  0  0  0  0  0
   31.3720    6.5070   14.2100 H   0  0  0  0  0  0  0  0  0  0  0  0
   33.3050    6.2690   16.5750 H   0  0  0  0  0  0  0  0  0  0  0  0
   33.5790    7.0920   15.0680 H   0  0  0  0  0  0  0  0  0  0  0  0
   32.5330    7.5030   18.3980 H   0  0  0  0  0  0  0  0  0  0  0  0
   30.9750   11.4700   17.9120 H   0  0  0  0  0  0  0  0  0  0  0  0
   31.0390   11.1900   15.4410 H   0  0  0  0  0  0  0  0  0  0  0  0
   31.8940    9.0600   14.4590 H   0  0  0  0  0  0  0  0  0  0  0  0
   32.8060    9.9280   20.1350 H   0  0  0  0  0  0  0  0  0  0  0  0
   31.1890   10.5890   20.0910 H   0  0  0  0  0  0  0  0  0  0  0  0
   31.7760    7.6020   20.4580 H   0  0  0  0  0  0  0  0  0  0  0  0
   31.4760    8.7210   21.7750 H   0  0  0  0  0  0  0  0  0  0  0  0
   29.1940    9.1610   21.1250 H   0  0  0  0  0  0  0  0  0  0  0  0
   29.4630    8.6360   19.4830 H   0  0  0  0  0  0  0  0  0  0  0  0
   29.9550    6.2490   20.4830 H   0  0  0  0  0  0  0  0  0  0  0  0
   29.3040    6.8750   21.9960 H   0  0  0  0  0  0  0  0  0  0  0  0
   27.1040    7.1280   20.8960 H   0  0  0  0  0  0  0  0  0  0  0  0
   26.5210    5.1550   15.6860 H   0  0  0  0  0  0  0  0  0  0  0  0
   29.5240    6.7840   18.2670 H   0  0  0  0  0  0  0  0  0  0  0  0
   32.4260    4.0320   15.6390 H   0  0  0  0  0  0  0  0  0  0  0  0
   30.2540    3.8060   14.3120 H   0  0  0  0  0  0  0  0  0  0  0  0
   31.1080    4.4010   12.8830 H   0  0  0  0  0  0  0  0  0  0  0  0
   31.6880    1.7830   14.2520 H   0  0  0  0  0  0  0  0  0  0  0  0
   32.6450    2.4440   13.0380 H   0  0  0  0  0  0  0  0  0  0  0  0
   29.6610    1.9190   12.7580 H   0  0  0  0  0  0  0  0  0  0  0  0
   30.8800    0.8230   12.1430 H   0  0  0  0  0  0  0  0  0  0  0  0
   32.8430    2.9980   11.0250 H   0  0  0  0  0  0  0  0  0  0  0  0
   30.7430    4.5210    7.6210 H   0  0  0  0  0  0  0  0  0  0  0  0
   28.5940    3.6600    8.5440 H   0  0  0  0  0  0  0  0  0  0  0  0
   28.5720    2.4560   10.7210 H   0  0  0  0  0  0  0  0  0  0  0  0
   33.0730    4.8070    7.7360 H   0  0  0  0  0  0  0  0  0  0  0  0
   22.8660    4.9330   16.4920 H   0  0  0  0  0  0  0  0  0  0  0  0
   24.0410    5.9970   15.7060 H   0  0  0  0  0  0  0  0  0  0  0  0
   24.3160    4.2240   15.7560 H   0  0  0  0  0  0  0  0  0  0  0  0
   33.2360    6.2820    9.6570 H   0  0  0  0  0  0  0  0  0  0  0  0
   33.9360    5.0320   10.6780 H   0  0  0  0  0  0  0  0  0  0  0  0
   34.8680    5.7030    9.3140 H   0  0  0  0  0  0  0  0  0  0  0  0
   35.2540    3.6450    8.0900 H   0  0  0  0  0  0  0  0  0  0  0  0
   33.9810    2.4560    7.8400 H   0  0  0  0  0  0  0  0  0  0  0  0
   34.6020    2.7560    9.4800 H   0  0  0  0  0  0  0  0  0  0  0  0
   34.1870    5.0000   14.4730 H   0  0  0  0  0  0  0  0  0  0  0  0
  1  2  1  0  0  0  0
  1 21  1  0  0  0  0
  2  3  1  0  0  0  0
  2 25  1  0  0  0  0
  2 40  1  6  0  0  0
  3  4  1  0  0  0  0
  4  5  2  0  0  0  0
  4  9  1  0  0  0  0
  5  6  1  0  0  0  0
  6  7  2  0  0  0  0
  6 10  1  0  0  0  0
  7  8  1  0  0  0  0
  8  9  2  0  0  0  0
 10 11  1  0  0  0  0
 11 12  1  0  0  0  0
 12 13  1  0  0  0  0
 13 14  1  0  0  0  0
 14 15  1  0  0  0  0
 15 16  2  0  0  0  0
 15 20  1  0  0  0  0
 16 17  1  0  0  0  0
 17 18  2  0  0  0  0
 17 23  1  0  0  0  0
 18 19  1  0  0  0  0
 19 20  2  0  0  0  0
 19 21  1  0  0  0  0
 21 22  2  0  0  0  0
 23 24  1  0  0  0  0
 25 26  1  0  0  0  0
 25 27  1  0  0  0  0
 25 58  1  1  0  0  0
 27 28  1  0  0  0  0
 28 29  1  0  0  0  0
 29 30  1  0  0  0  0
 30 31  2  0  0  0  0
 30 35  1  0  0  0  0
 31 32  1  0  0  0  0
 32 33  2  0  0  0  0
 32 36  1  0  0  0  0
 33 34  1  0  0  0  0
 34 35  2  0  0  0  0
 36 37  1  0  0  0  0
 36 38  1  0  0  0  0
 39  1  1  0  0  0  0
 41  3  1  0  0  0  0
 42  3  1  0  0  0  0
 43  5  1  0  0  0  0
 44  7  1  0  0  0  0
 45  8  1  0  0  0  0
 46  9  1  0  0  0  0
 47 10  1  0  0  0  0
 48 10  1  0  0  0  0
 49 11  1  0  0  0  0
 50 11  1  0  0  0  0
 51 12  1  0  0  0  0
 52 12  1  0  0  0  0
 53 13  1  0  0  0  0
 54 13  1  0  0  0  0
 55 14  1  0  0  0  0
 56 18  1  0  0  0  0
 57 20  1  0  0  0  0
 59 27  1  0  0  0  0
 60 27  1  0  0  0  0
 61 28  1  0  0  0  0
 62 28  1  0  0  0  0
 63 29  1  0  0  0  0
 64 29  1  0  0  0  0
 65 31  1  0  0  0  0
 66 33  1  0  0  0  0
 67 34  1  0  0  0  0
 68 35  1  0  0  0  0
 69 36  1  0  0  0  0
 70 24  1  0  0  0  0
 71 24  1  0  0  0  0
 72 24  1  0  0  0  0
 73 37  1  0  0  0  0
 74 37  1  0  0  0  0
 75 37  1  0  0  0  0
 76 38  1  0  0  0  0
 77 38  1  0  0  0  0
 78 38  1  0  0  0  0
 79 26  1  0  0  0  0
M  CHG  1  28   1
M  END
>  <IC50_NM>
7.8

>  <number_of_rotatable_bonds>
7

>  <lm5_entropy_jk>
39.3856002100702

>  <charge>
1

>  <old_name>
BACE_12

>  <xray_resolution>
2.1

$$$$
