3QTS
 OpenBabel11252210453D

 38 40  0  0  1  0  0  0  0  0999 V2000
   65.7070  154.3310  -50.0890 N   0  0  0  0  0  0  0  0  0  0  0  0
   67.4050  153.4850  -51.5600 N   0  0  0  0  0  0  0  0  0  0  0  0
   64.0480  154.6440  -48.4150 N   0  0  0  0  0  0  0  0  0  0  0  0
   68.5770  149.3510  -45.5950 C   0  0  0  0  0  0  0  0  0  0  0  0
   68.3030  150.7100  -45.4370 C   0  0  0  0  0  0  0  0  0  0  0  0
   68.2890  151.5970  -46.5390 C   0  0  0  0  0  0  0  0  0  0  0  0
   68.8040  149.7240  -47.9920 C   0  0  0  0  0  0  0  0  0  0  0  0
   68.8390  148.8750  -46.8860 C   0  0  0  0  0  0  0  0  0  0  0  0
   67.7760  150.5380  -43.0800 C   0  0  0  0  0  0  0  0  0  0  0  0
   68.5260  151.0900  -47.8130 C   0  0  0  0  0  0  0  0  0  0  0  0
   68.4900  151.9800  -49.0370 C   0  0  0  0  0  0  0  0  0  0  0  0
   67.2980  152.7500  -49.2130 C   0  0  0  0  0  0  0  0  0  0  0  0
   66.8630  153.5300  -50.3080 C   0  0  0  0  0  0  0  0  0  0  0  0
   65.1810  154.0250  -48.8720 C   0  0  0  0  0  0  0  0  0  0  0  0
   63.3530  154.4610  -47.1740 C   0  0  0  0  0  0  0  0  0  0  0  0
   63.4770  153.3370  -46.3470 C   0  0  0  0  0  0  0  0  0  0  0  0
   62.7720  153.3040  -45.1370 C   0  0  0  0  0  0  0  0  0  0  0  0
   61.9160  154.3430  -44.7720 C   0  0  0  0  0  0  0  0  0  0  0  0
   61.7550  155.4380  -45.6290 C   0  0  0  0  0  0  0  0  0  0  0  0
   62.4670  155.5060  -46.8220 C   0  0  0  0  0  0  0  0  0  0  0  0
   69.4390  151.9960  -49.8090 O   0  0  0  0  0  0  0  0  0  0  0  0
   68.0530  151.3560  -44.2450 O   0  0  0  0  0  0  0  0  0  0  0  0
   66.1130  152.7620  -47.9440 S   0  0  0  0  0  0  0  0  0  0  0  0
   68.5870  148.6530  -44.7570 H   0  0  0  0  0  0  0  0  0  0  0  0
   67.0820  154.1270  -52.3130 H   0  0  0  0  0  0  0  0  0  0  0  0
   68.3000  153.0110  -51.7040 H   0  0  0  0  0  0  0  0  0  0  0  0
   68.1260  152.6550  -46.3300 H   0  0  0  0  0  0  0  0  0  0  0  0
   63.5560  155.2920  -49.0820 H   0  0  0  0  0  0  0  0  0  0  0  0
   68.9960  149.3170  -48.9860 H   0  0  0  0  0  0  0  0  0  0  0  0
   69.0760  147.8180  -47.0100 H   0  0  0  0  0  0  0  0  0  0  0  0
   67.3900  151.2950  -42.3600 H   0  0  0  0  0  0  0  0  0  0  0  0
   68.7160  150.0680  -42.7210 H   0  0  0  0  0  0  0  0  0  0  0  0
   66.9940  149.7810  -43.3080 H   0  0  0  0  0  0  0  0  0  0  0  0
   64.0790  152.4670  -46.6120 H   0  0  0  0  0  0  0  0  0  0  0  0
   62.9020  152.4500  -44.4660 H   0  0  0  0  0  0  0  0  0  0  0  0
   61.3770  154.3070  -43.8230 H   0  0  0  0  0  0  0  0  0  0  0  0
   61.0690  156.2490  -45.3630 H   0  0  0  0  0  0  0  0  0  0  0  0
   62.3310  156.3650  -47.4830 H   0  0  0  0  0  0  0  0  0  0  0  0
  1 13  1  0  0  0  0
  1 14  2  0  0  0  0
  2 13  1  0  0  0  0
  2 25  1  0  0  0  0
  2 26  1  0  0  0  0
  3 14  1  0  0  0  0
  3 15  1  0  0  0  0
  3 28  1  0  0  0  0
  4  5  2  0  0  0  0
  4  8  1  0  0  0  0
  4 24  1  0  0  0  0
  5  6  1  0  0  0  0
  5 22  1  0  0  0  0
  6 10  2  0  0  0  0
  6 27  1  0  0  0  0
  7  8  2  0  0  0  0
  7 10  1  0  0  0  0
  7 29  1  0  0  0  0
  8 30  1  0  0  0  0
  9 22  1  0  0  0  0
  9 31  1  0  0  0  0
  9 32  1  0  0  0  0
  9 33  1  0  0  0  0
 11 10  1  0  0  0  0
 11 12  1  0  0  0  0
 11 21  2  0  0  0  0
 12 13  2  0  0  0  0
 12 23  1  0  0  0  0
 14 23  1  0  0  0  0
 15 16  2  0  0  0  0
 15 20  1  0  0  0  0
 16 17  1  0  0  0  0
 16 34  1  0  0  0  0
 17 18  2  0  0  0  0
 17 35  1  0  0  0  0
 18 19  1  0  0  0  0
 18 36  1  0  0  0  0
 19 20  2  0  0  0  0
 19 37  1  0  0  0  0
 20 38  1  0  0  0  0
M  END
>  <lm5_entropy_jk>
31.97375871552738

>  <number_of_rotatable_bonds>
5

>  <IC50_NM>
3100

>  <charge>
0

$$$$
