1cMe_1k1j.pdb
 OpenBabel11252210453D

 68 71  0  0  1  0  0  0  0  0999 V2000
    0.6610   22.0880   16.6190 C   0  0  0  0  0  0  0  0  0  0  0  0
    0.1540   21.4080   15.5340 C   0  0  0  0  0  0  0  0  0  0  0  0
    1.0370   20.8490   14.5640 C   0  0  0  0  0  0  0  0  0  0  0  0
    2.3960   20.9870   14.6970 C   0  0  0  0  0  0  0  0  0  0  0  0
    4.3630   21.8660   15.9700 C   0  0  0  0  0  0  0  0  0  0  0  0
    4.8590   22.5750   17.0340 C   0  0  0  0  0  0  0  0  0  0  0  0
    3.9750   23.1510   17.9960 C   0  0  0  0  0  0  0  0  0  0  0  0
    2.6200   22.9950   17.8740 C   0  0  0  0  0  0  0  0  0  0  0  0
    2.0710   22.2590   16.7720 C   0  0  0  0  0  0  0  0  0  0  0  0
    2.9510   21.6950   15.8080 C   0  0  0  0  0  0  0  0  0  0  0  0
   -1.5500   21.1480   15.3530 S   0  0  0  0  0  0  0  0  0  0  0  0
   -2.0700   13.8570   15.1020 C   0  0  0  0  0  0  0  0  0  0  0  0
   -1.7560   19.5510   15.9730 N   0  0  0  0  0  0  0  0  0  0  0  0
   -1.5430   19.2010   17.3790 C   0  0  1  0  0  0  0  0  0  0  0  0
   -1.9580   21.0470   13.9520 O   0  0  0  0  0  0  0  0  0  0  0  0
   -2.3110   22.1030   16.1560 O   0  0  0  0  0  0  0  0  0  0  0  0
   -2.5200   18.0670   17.8020 C   0  0  0  0  0  0  0  0  0  0  0  0
   -0.0740   18.7460   17.6260 C   0  0  0  0  0  0  0  0  0  0  0  0
    0.5920   18.2460   16.7240 O   0  0  0  0  0  0  0  0  0  0  0  0
    2.0380   20.3230   20.8860 C   0  0  1  0  0  0  0  0  0  0  0  0
   -1.7340   12.5400   14.9760 N   0  3  0  0  0  0  0  0  0  0  0  0
    2.8220   21.5400   21.3450 C   0  0  0  0  0  0  0  0  0  0  0  0
    2.4280   22.6650   21.5520 O   0  0  0  0  0  0  0  0  0  0  0  0
   -2.6500   14.4240   14.0050 N   0  0  0  0  0  0  0  0  0  0  0  0
    4.1290   21.1780   21.5710 O   0  0  0  0  0  0  0  0  0  0  0  0
   -1.7620   14.6240   16.3270 C   0  0  0  0  0  0  0  0  0  0  0  0
   -1.0900   14.0160   17.4060 C   0  0  0  0  0  0  0  0  0  0  0  0
   -0.8520   14.7350   18.5780 C   0  0  0  0  0  0  0  0  0  0  0  0
   -1.3010   16.0510   18.7040 C   0  0  0  0  0  0  0  0  0  0  0  0
   -1.9870   16.6720   17.6460 C   0  0  0  0  0  0  0  0  0  0  0  0
   -2.1910   15.9590   16.4580 C   0  0  0  0  0  0  0  0  0  0  0  0
   -0.2010   19.4840   20.0790 C   0  0  0  0  0  0  0  0  0  0  0  0
    0.5910   20.7190   20.5470 C   0  0  0  0  0  0  0  0  0  0  0  0
    2.7050   19.6550   19.6710 C   0  0  0  0  0  0  0  0  0  0  0  0
    1.8780   18.4600   19.1700 C   0  0  0  0  0  0  0  0  0  0  0  0
    0.4540   18.8340   18.9100 N   0  0  0  0  0  0  0  0  0  0  0  0
    5.0590   22.2180   21.9920 C   0  0  0  0  0  0  0  0  0  0  0  0
    4.7000   22.6850   22.9330 H   0  0  0  0  0  0  0  0  0  0  0  0
    0.0090   22.5190   17.3910 H   0  0  0  0  0  0  0  0  0  0  0  0
    0.6270   20.3050   13.7070 H   0  0  0  0  0  0  0  0  0  0  0  0
    3.0800   20.5640   13.9520 H   0  0  0  0  0  0  0  0  0  0  0  0
    5.0370   21.4190   15.2310 H   0  0  0  0  0  0  0  0  0  0  0  0
    5.9380   22.7130   17.1650 H   0  0  0  0  0  0  0  0  0  0  0  0
    4.4080   23.7210   18.8250 H   0  0  0  0  0  0  0  0  0  0  0  0
    1.9340   23.4340   18.6060 H   0  0  0  0  0  0  0  0  0  0  0  0
   -1.6110   18.7440   15.3240 H   0  0  0  0  0  0  0  0  0  0  0  0
   -1.7830   20.1100   18.0030 H   0  0  0  0  0  0  0  0  0  0  0  0
   -3.4590   18.1840   17.1870 H   0  0  0  0  0  0  0  0  0  0  0  0
    2.0200   19.5870   21.7340 H   0  0  0  0  0  0  0  0  0  0  0  0
   -1.3120   11.9940   15.7500 H   0  0  0  0  0  0  0  0  0  0  0  0
   -3.0560   13.7900   13.2660 H   0  0  0  0  0  0  0  0  0  0  0  0
   -0.7570   12.9780   17.3650 H   0  0  0  0  0  0  0  0  0  0  0  0
   -0.3220   14.2660   19.4140 H   0  0  0  0  0  0  0  0  0  0  0  0
   -1.1120   16.6010   19.6340 H   0  0  0  0  0  0  0  0  0  0  0  0
   -2.6970   16.4780   15.6440 H   0  0  0  0  0  0  0  0  0  0  0  0
   -1.2520   19.7890   19.8520 H   0  0  0  0  0  0  0  0  0  0  0  0
    0.5840   21.4910   19.7410 H   0  0  0  0  0  0  0  0  0  0  0  0
    3.7220   19.2900   19.9600 H   0  0  0  0  0  0  0  0  0  0  0  0
    1.8730   17.6370   19.9330 H   0  0  0  0  0  0  0  0  0  0  0  0
    5.1650   22.9600   21.1710 H   0  0  0  0  0  0  0  0  0  0  0  0
   -2.8190   18.2270   18.8710 H   0  0  0  0  0  0  0  0  0  0  0  0
   -2.1530   11.9600   14.2090 H   0  0  0  0  0  0  0  0  0  0  0  0
   -2.9680   15.4120   13.9850 H   0  0  0  0  0  0  0  0  0  0  0  0
   -0.2340   18.7200   20.9030 H   0  0  0  0  0  0  0  0  0  0  0  0
    0.0810   21.1470   21.4470 H   0  0  0  0  0  0  0  0  0  0  0  0
    2.8060   20.4010   18.8460 H   0  0  0  0  0  0  0  0  0  0  0  0
    2.3250   18.0760   18.2210 H   0  0  0  0  0  0  0  0  0  0  0  0
    5.9950   21.6370   22.1460 H   0  0  0  0  0  0  0  0  0  0  0  0
  1  2  2  0  0  0  0
  1  9  1  0  0  0  0
  1 39  1  0  0  0  0
  2  3  1  0  0  0  0
  2 11  1  0  0  0  0
  3  4  2  0  0  0  0
  3 40  1  0  0  0  0
  4 10  1  0  0  0  0
  4 41  1  0  0  0  0
  5  6  2  0  0  0  0
  5 10  1  0  0  0  0
  5 42  1  0  0  0  0
  6  7  1  0  0  0  0
  6 43  1  0  0  0  0
  7  8  2  0  0  0  0
  7 44  1  0  0  0  0
  8  9  1  0  0  0  0
  8 45  1  0  0  0  0
  9 10  2  0  0  0  0
 11 13  1  0  0  0  0
 11 15  2  0  0  0  0
 11 16  2  0  0  0  0
 12 21  2  0  0  0  0
 12 24  1  0  0  0  0
 12 26  1  0  0  0  0
 13 14  1  0  0  0  0
 13 46  1  0  0  0  0
 14 17  1  0  0  0  0
 14 18  1  0  0  0  0
 14 47  1  1  0  0  0
 17 30  1  0  0  0  0
 17 48  1  0  0  0  0
 17 61  1  0  0  0  0
 18 19  2  0  0  0  0
 18 36  1  0  0  0  0
 20 22  1  0  0  0  0
 20 33  1  0  0  0  0
 20 34  1  0  0  0  0
 20 49  1  1  0  0  0
 21 50  1  0  0  0  0
 21 62  1  0  0  0  0
 22 23  2  0  0  0  0
 22 25  1  0  0  0  0
 24 51  1  0  0  0  0
 24 63  1  0  0  0  0
 25 37  1  0  0  0  0
 26 27  2  0  0  0  0
 26 31  1  0  0  0  0
 27 28  1  0  0  0  0
 27 52  1  0  0  0  0
 28 29  2  0  0  0  0
 28 53  1  0  0  0  0
 29 30  1  0  0  0  0
 29 54  1  0  0  0  0
 30 31  2  0  0  0  0
 31 55  1  0  0  0  0
 32 33  1  0  0  0  0
 32 36  1  0  0  0  0
 32 56  1  0  0  0  0
 32 64  1  0  0  0  0
 33 57  1  0  0  0  0
 33 65  1  0  0  0  0
 34 35  1  0  0  0  0
 34 58  1  0  0  0  0
 34 66  1  0  0  0  0
 35 36  1  0  0  0  0
 35 59  1  0  0  0  0
 35 67  1  0  0  0  0
 37 38  1  0  0  0  0
 37 60  1  0  0  0  0
 37 68  1  0  0  0  0
M  CHG  1  21   1
M  END
>  <deltaG_kcalmol>
-10.31

>  <charge>
1

>  <lm5_entropy_jk>
31.910199423359543

>  <number_of_rotatable_bonds>
10

$$$$
