1M2Q
 OpenBabel11252210453D

 27 29  0  0  1  0  0  0  0  0999 V2000
   21.5650    8.6250   19.8540 N   0  3  0  0  0  0  0  0  0  0  0  0
   25.4120    3.8170   18.2530 C   0  0  0  0  0  0  0  0  0  0  0  0
   24.6490    4.9800   18.2490 C   0  0  0  0  0  0  0  0  0  0  0  0
   23.8640    5.2540   19.3490 C   0  0  0  0  0  0  0  0  0  0  0  0
   23.8050    4.3780   20.4250 C   0  0  0  0  0  0  0  0  0  0  0  0
   24.5480    3.1980   20.4280 C   0  0  0  0  0  0  0  0  0  0  0  0
   25.3680    2.9420   19.3280 C   0  0  0  0  0  0  0  0  0  0  0  0
   23.1230    7.3360   18.4420 C   0  0  0  0  0  0  0  0  0  0  0  0
   23.8240    7.1400   17.2590 C   0  0  0  0  0  0  0  0  0  0  0  0
   24.6520    5.9290   17.1320 C   0  0  0  0  0  0  0  0  0  0  0  0
   23.6960    8.0780   16.2420 C   0  0  0  0  0  0  0  0  0  0  0  0
   22.8890    9.1920   16.4140 C   0  0  0  0  0  0  0  0  0  0  0  0
   22.1830    9.4010   17.5980 C   0  0  0  0  0  0  0  0  0  0  0  0
   22.3150    8.4530   18.6090 C   0  0  0  0  0  0  0  0  0  0  0  0
   26.2420    3.5380   17.2380 O   0  0  0  0  0  0  0  0  0  0  0  0
   20.4980    9.2210   19.7660 O   0  5  0  0  0  0  0  0  0  0  0  0
   22.1720    8.4870   20.9070 O   0  0  0  0  0  0  0  0  0  0  0  0
   23.1430    6.3940   19.4200 O   0  0  0  0  0  0  0  0  0  0  0  0
   25.3170    5.6840   16.1430 O   0  0  0  0  0  0  0  0  0  0  0  0
   24.2900    7.9260   15.0390 O   0  0  0  0  0  0  0  0  0  0  0  0
   22.7960    9.9270   15.6220 H   0  0  0  0  0  0  0  0  0  0  0  0
   21.5430   10.2800   17.7210 H   0  0  0  0  0  0  0  0  0  0  0  0
   25.9750    2.0410   19.2980 H   0  0  0  0  0  0  0  0  0  0  0  0
   23.1620    4.6220   21.2670 H   0  0  0  0  0  0  0  0  0  0  0  0
   24.4940    2.4990   21.2660 H   0  0  0  0  0  0  0  0  0  0  0  0
   26.0000    4.2370   16.5900 H   0  0  0  0  0  0  0  0  0  0  0  0
   24.3030    8.8130   14.6310 H   0  0  0  0  0  0  0  0  0  0  0  0
  2  3  2  0  0  0  0
  2  7  1  0  0  0  0
  2 15  1  0  0  0  0
  3  4  1  0  0  0  0
  3 10  1  0  0  0  0
  4  5  2  0  0  0  0
  4 18  1  0  0  0  0
  5  6  1  0  0  0  0
  5 24  1  0  0  0  0
  6  7  2  0  0  0  0
  6 25  1  0  0  0  0
  7 23  1  0  0  0  0
  8  9  2  0  0  0  0
  8 14  1  0  0  0  0
  9 10  1  0  0  0  0
  9 11  1  0  0  0  0
 10 19  2  0  0  0  0
 11 12  2  0  0  0  0
 11 20  1  0  0  0  0
 12 13  1  0  0  0  0
 12 21  1  0  0  0  0
 13 14  2  0  0  0  0
 13 22  1  0  0  0  0
 14  1  1  0  0  0  0
 15 26  1  0  0  0  0
 16  1  1  0  0  0  0
 17  1  2  0  0  0  0
 18  8  1  0  0  0  0
 20 27  1  0  0  0  0
M  CHG  2   1   1  16  -1
M  END
>  <Ki_NM>
800

>  <charge>
0

>  <number_of_rotatable_bonds>
1

>  <lm5_entropy_jk>
14.133140156892344

$$$$
