model25d
 OpenBabel11252210453D

 84 88  0  0  1  0  0  0  0  0999 V2000
    1.6130    2.1520   11.1450 C   0  0  0  0  0  0  0  0  0  0  0  0
    0.1500    4.0420   10.7530 N   0  0  0  0  0  0  0  0  0  0  0  0
    2.6070    2.7450   10.3480 C   0  0  0  0  0  0  0  0  0  0  0  0
    5.1630    0.2770   16.7940 O   0  0  0  0  0  0  0  0  0  0  0  0
    3.5080   -1.2870   12.7290 O   0  0  0  0  0  0  0  0  0  0  0  0
    2.3380    3.9840    9.7450 C   0  0  0  0  0  0  0  0  0  0  0  0
    4.5470    0.2520   14.0520 N   0  0  0  0  0  0  0  0  0  0  0  0
    2.8770    0.9260   12.7800 O   0  0  0  0  0  0  0  0  0  0  0  0
    1.0930    4.5920    9.9610 C   0  0  0  0  0  0  0  0  0  0  0  0
    3.7220   -5.6420   17.2390 C   0  0  0  0  0  0  0  0  0  0  0  0
    5.8100   -3.8270   16.5370 N   0  0  0  0  0  0  0  0  0  0  0  0
    4.5010   -6.1220   18.3050 C   0  0  0  0  0  0  0  0  0  0  0  0
    6.6930   -3.6300   14.4600 O   0  0  0  0  0  0  0  0  0  0  0  0
    0.4000    2.8450   11.3310 C   0  0  0  0  0  0  0  0  0  0  0  0
    4.7200   -7.4990   18.4650 C   0  0  0  0  0  0  0  0  0  0  0  0
    4.1440   -8.4020   17.5590 C   0  0  0  0  0  0  0  0  0  0  0  0
    3.3490   -7.9310   16.5020 C   0  0  0  0  0  0  0  0  0  0  0  0
    8.4750  -10.3220   18.0290 C   0  0  0  0  0  0  0  0  0  0  0  0
    3.1430   -6.5480   16.3410 C   0  0  0  0  0  0  0  0  0  0  0  0
    1.8650    0.7790   11.7590 C   0  0  0  0  0  0  0  0  0  0  0  0
    3.6240   -0.1480   13.1490 C   0  0  0  0  0  0  0  0  0  0  0  0
    5.6330   -0.5860   14.5720 C   0  0  1  0  0  0  0  0  0  0  0  0
    7.4700  -11.4730   17.8300 C   0  0  0  0  0  0  0  0  0  0  0  0
    8.0170   -0.1790   10.6590 C   0  0  0  0  0  0  0  0  0  0  0  0
    7.7020    1.0940   10.1570 C   0  0  0  0  0  0  0  0  0  0  0  0
    7.1650    2.0700   11.0090 C   0  0  0  0  0  0  0  0  0  0  0  0
    6.9350    1.7630   12.3610 C   0  0  0  0  0  0  0  0  0  0  0  0
    7.2300    0.4860   12.8640 C   0  0  0  0  0  0  0  0  0  0  0  0
    7.7760   -0.4830   12.0110 C   0  0  0  0  0  0  0  0  0  0  0  0
    6.9690    0.1650   14.3260 C   0  0  0  0  0  0  0  0  0  0  0  0
    5.4400   -0.9240   16.0890 C   0  0  2  0  0  0  0  0  0  0  0  0
    4.2740   -1.8820   16.4410 C   0  0  0  0  0  0  0  0  0  0  0  0
    4.4620   -3.3970   16.2040 C   0  0  2  0  0  0  0  0  0  0  0  0
    6.7930   -4.0330   15.6040 C   0  0  0  0  0  0  0  0  0  0  0  0
    8.0120   -4.8430   16.0690 C   0  0  1  0  0  0  0  0  0  0  0  0
    8.5590   -4.4040   17.3440 O   0  0  0  0  0  0  0  0  0  0  0  0
    3.4680   -4.1540   17.1120 C   0  0  0  0  0  0  0  0  0  0  0  0
    9.0520   -5.4470   18.0740 C   0  0  0  0  0  0  0  0  0  0  0  0
    9.6630   -5.3530   19.1200 O   0  0  0  0  0  0  0  0  0  0  0  0
    8.6110   -6.6140   17.4920 N   0  0  0  0  0  0  0  0  0  0  0  0
    7.7550   -6.3410   16.3300 C   0  0  0  0  0  0  0  0  0  0  0  0
    8.9970   -7.9300   17.8630 C   0  0  0  0  0  0  0  0  0  0  0  0
    8.1000   -8.9980   17.7130 C   0  0  0  0  0  0  0  0  0  0  0  0
    9.7780  -10.5590   18.5180 C   0  0  0  0  0  0  0  0  0  0  0  0
   10.6800   -9.4950   18.6800 C   0  0  0  0  0  0  0  0  0  0  0  0
   10.2920   -8.1900   18.3380 C   0  0  0  0  0  0  0  0  0  0  0  0
    6.2940  -11.2220   18.4470 F   0  0  0  0  0  0  0  0  0  0  0  0
    7.1970  -11.6640   16.5200 F   0  0  0  0  0  0  0  0  0  0  0  0
    7.9190  -12.6550   18.3110 F   0  0  0  0  0  0  0  0  0  0  0  0
    3.5610    2.2410   10.1880 H   0  0  0  0  0  0  0  0  0  0  0  0
   -0.4020    2.4260   11.9450 H   0  0  0  0  0  0  0  0  0  0  0  0
    3.0800    4.4630    9.1050 H   0  0  0  0  0  0  0  0  0  0  0  0
    4.5160    1.2300   14.3030 H   0  0  0  0  0  0  0  0  0  0  0  0
    5.9810   -4.1850   17.4660 H   0  0  0  0  0  0  0  0  0  0  0  0
    4.0970   -1.7360   17.5100 H   0  0  0  0  0  0  0  0  0  0  0  0
    4.9220   -5.4270   19.0260 H   0  0  0  0  0  0  0  0  0  0  0  0
    5.3230   -7.8650   19.2960 H   0  0  0  0  0  0  0  0  0  0  0  0
    4.3040   -9.4730   17.6810 H   0  0  0  0  0  0  0  0  0  0  0  0
    2.8960   -8.6430   15.8140 H   0  0  0  0  0  0  0  0  0  0  0  0
    2.5180   -6.1800   15.5320 H   0  0  0  0  0  0  0  0  0  0  0  0
    2.2080    0.0950   10.9660 H   0  0  0  0  0  0  0  0  0  0  0  0
    5.6580   -1.5310   14.0150 H   0  0  0  0  0  0  0  0  0  0  0  0
    0.9440    0.3480   12.1770 H   0  0  0  0  0  0  0  0  0  0  0  0
    0.8440    5.5450    9.4810 H   0  0  0  0  0  0  0  0  0  0  0  0
    6.0510    0.5520   17.1470 H   0  0  0  0  0  0  0  0  0  0  0  0
    8.4460   -0.9280    9.9980 H   0  0  0  0  0  0  0  0  0  0  0  0
    7.8750    1.3290    9.1070 H   0  0  0  0  0  0  0  0  0  0  0  0
    6.9270    3.0630   10.6250 H   0  0  0  0  0  0  0  0  0  0  0  0
    6.5190    2.5200   13.0210 H   0  0  0  0  0  0  0  0  0  0  0  0
    8.0160   -1.4670   12.4030 H   0  0  0  0  0  0  0  0  0  0  0  0
    7.8020   -0.4190   14.7340 H   0  0  0  0  0  0  0  0  0  0  0  0
    6.9700    1.0900   14.9160 H   0  0  0  0  0  0  0  0  0  0  0  0
    6.3820   -1.3560   16.4650 H   0  0  0  0  0  0  0  0  0  0  0  0
    3.3580   -1.5350   15.9490 H   0  0  0  0  0  0  0  0  0  0  0  0
    4.2570   -3.6430   15.1460 H   0  0  0  0  0  0  0  0  0  0  0  0
    8.7620   -4.7160   15.2740 H   0  0  0  0  0  0  0  0  0  0  0  0
    3.4830   -3.7320   18.1240 H   0  0  0  0  0  0  0  0  0  0  0  0
    2.4450   -3.9840   16.7560 H   0  0  0  0  0  0  0  0  0  0  0  0
    8.0370   -6.9660   15.4680 H   0  0  0  0  0  0  0  0  0  0  0  0
    6.6930   -6.5350   16.5690 H   0  0  0  0  0  0  0  0  0  0  0  0
    7.0950   -8.8020   17.3510 H   0  0  0  0  0  0  0  0  0  0  0  0
   10.0950  -11.5690   18.7770 H   0  0  0  0  0  0  0  0  0  0  0  0
   11.6840   -9.6850   19.0620 H   0  0  0  0  0  0  0  0  0  0  0  0
   11.0060   -7.3780   18.4380 H   0  0  0  0  0  0  0  0  0  0  0  0
  1  3  1  0  0  0  0
  1 20  1  0  0  0  0
  2  9  2  0  0  0  0
  2 14  1  0  0  0  0
  3 50  1  0  0  0  0
  4 65  1  0  0  0  0
  5 21  2  0  0  0  0
  6 52  1  0  0  0  0
  6  3  2  0  0  0  0
  7 22  1  0  0  0  0
  7 53  1  0  0  0  0
  8 21  1  0  0  0  0
  9  6  1  0  0  0  0
 10 37  1  0  0  0  0
 10 12  1  0  0  0  0
 11 54  1  0  0  0  0
 12 56  1  0  0  0  0
 13 34  2  0  0  0  0
 14  1  2  0  0  0  0
 15 12  2  0  0  0  0
 15 57  1  0  0  0  0
 16 15  1  0  0  0  0
 17 19  1  0  0  0  0
 17 16  2  0  0  0  0
 18 44  1  0  0  0  0
 19 10  2  0  0  0  0
 20  8  1  0  0  0  0
 21  7  1  0  0  0  0
 22 62  1  6  0  0  0
 22 31  1  0  0  0  0
 23 49  1  0  0  0  0
 23 18  1  0  0  0  0
 24 29  1  0  0  0  0
 25 24  2  0  0  0  0
 25 26  1  0  0  0  0
 26 27  2  0  0  0  0
 27 28  1  0  0  0  0
 27 69  1  0  0  0  0
 28 30  1  0  0  0  0
 29 70  1  0  0  0  0
 29 28  2  0  0  0  0
 30 71  1  0  0  0  0
 30 22  1  0  0  0  0
 30 72  1  0  0  0  0
 31 73  1  1  0  0  0
 31  4  1  0  0  0  0
 31 32  1  0  0  0  0
 32 55  1  0  0  0  0
 33 75  1  6  0  0  0
 33 32  1  0  0  0  0
 33 11  1  0  0  0  0
 33 37  1  0  0  0  0
 34 11  1  0  0  0  0
 34 35  1  0  0  0  0
 35 76  1  6  0  0  0
 35 36  1  0  0  0  0
 36 38  1  0  0  0  0
 37 77  1  0  0  0  0
 38 39  2  0  0  0  0
 40 42  1  0  0  0  0
 40 38  1  0  0  0  0
 41 35  1  0  0  0  0
 41 40  1  0  0  0  0
 42 46  2  0  0  0  0
 43 18  2  0  0  0  0
 43 42  1  0  0  0  0
 44 82  1  0  0  0  0
 44 45  2  0  0  0  0
 45 83  1  0  0  0  0
 46 45  1  0  0  0  0
 46 84  1  0  0  0  0
 47 23  1  0  0  0  0
 48 23  1  0  0  0  0
 51 14  1  0  0  0  0
 58 16  1  0  0  0  0
 59 17  1  0  0  0  0
 60 19  1  0  0  0  0
 61 20  1  0  0  0  0
 63 20  1  0  0  0  0
 64  9  1  0  0  0  0
 66 24  1  0  0  0  0
 67 25  1  0  0  0  0
 68 26  1  0  0  0  0
 74 32  1  0  0  0  0
 78 37  1  0  0  0  0
 79 41  1  0  0  0  0
 80 41  1  0  0  0  0
 81 43  1  0  0  0  0
M  END
>  <charge>
0

>  <KI_NM>
41.09

>  <number_of_rotatable_bonds>
17

>  <lm5_entropy_jk>
26.86894624216464

>  <ligand_crystal_conformation>
C

$$$$
