model25d
 OpenBabel11252210453D

 84 88  0  0  1  0  0  0  0  0999 V2000
    2.5060    2.5430   10.7890 C   0  0  0  0  0  0  0  0  0  0  0  0
    1.5270    4.2320    9.3560 N   0  0  0  0  0  0  0  0  0  0  0  0
    3.6900    3.3010   10.8830 C   0  0  0  0  0  0  0  0  0  0  0  0
    5.3240    0.4880   16.8130 O   0  0  0  0  0  0  0  0  0  0  0  0
    3.8350   -0.9970   12.5890 O   0  0  0  0  0  0  0  0  0  0  0  0
    3.7590    4.5330   10.2120 C   0  0  0  0  0  0  0  0  0  0  0  0
    4.7390    0.4980   14.0490 N   0  0  0  0  0  0  0  0  0  0  0  0
    3.1760    1.2080   12.6780 O   0  0  0  0  0  0  0  0  0  0  0  0
    2.6580    4.9600    9.4530 C   0  0  0  0  0  0  0  0  0  0  0  0
    3.5530   -5.4220   16.5840 C   0  0  0  0  0  0  0  0  0  0  0  0
    5.8870   -3.6110   16.3980 N   0  0  0  0  0  0  0  0  0  0  0  0
    3.7550   -6.1950   17.7390 C   0  0  0  0  0  0  0  0  0  0  0  0
    6.9170   -3.7110   14.3750 O   0  0  0  0  0  0  0  0  0  0  0  0
    1.4480    3.0530   10.0110 C   0  0  0  0  0  0  0  0  0  0  0  0
    3.7560   -7.5980   17.6660 C   0  0  0  0  0  0  0  0  0  0  0  0
    3.5720   -8.2290   16.4250 C   0  0  0  0  0  0  0  0  0  0  0  0
    3.3750   -7.4590   15.2680 C   0  0  0  0  0  0  0  0  0  0  0  0
    7.4890  -10.1730   17.6400 C   0  0  0  0  0  0  0  0  0  0  0  0
    3.3430   -6.0560   15.3540 C   0  0  0  0  0  0  0  0  0  0  0  0
    2.4100    1.1690   11.4530 C   0  0  0  0  0  0  0  0  0  0  0  0
    3.8970    0.1250   13.0660 C   0  0  0  0  0  0  0  0  0  0  0  0
    5.8340   -0.3170   14.5750 C   0  0  1  0  0  0  0  0  0  0  0  0
    6.2510  -11.0840   17.5460 C   0  0  0  0  0  0  0  0  0  0  0  0
    8.0280    0.2480   10.6540 C   0  0  0  0  0  0  0  0  0  0  0  0
    7.8690    1.5830   10.2460 C   0  0  0  0  0  0  0  0  0  0  0  0
    7.4820    2.5600   11.1760 C   0  0  0  0  0  0  0  0  0  0  0  0
    7.2570    2.1990   12.5160 C   0  0  0  0  0  0  0  0  0  0  0  0
    7.4020    0.8650   12.9270 C   0  0  0  0  0  0  0  0  0  0  0  0
    7.7810   -0.1100   11.9920 C   0  0  0  0  0  0  0  0  0  0  0  0
    7.1420    0.4820   14.3730 C   0  0  0  0  0  0  0  0  0  0  0  0
    5.6020   -0.6920   16.0710 C   0  0  2  0  0  0  0  0  0  0  0  0
    4.4080   -1.6410   16.3170 C   0  0  0  0  0  0  0  0  0  0  0  0
    4.5890   -3.1310   15.9560 C   0  0  2  0  0  0  0  0  0  0  0  0
    6.9590   -3.8940   15.5810 C   0  0  0  0  0  0  0  0  0  0  0  0
    8.2450   -4.3560   16.3210 C   0  0  1  0  0  0  0  0  0  0  0  0
    7.9810   -4.4520   17.7410 O   0  0  0  0  0  0  0  0  0  0  0  0
    3.4810   -3.9130   16.6910 C   0  0  0  0  0  0  0  0  0  0  0  0
    7.7670   -5.7270   18.1660 C   0  0  0  0  0  0  0  0  0  0  0  0
    7.4600   -6.0520   19.2950 O   0  0  0  0  0  0  0  0  0  0  0  0
    8.3130   -6.5480   17.2250 N   0  0  0  0  0  0  0  0  0  0  0  0
    8.7250   -5.8000   16.0160 C   0  0  0  0  0  0  0  0  0  0  0  0
    8.4730   -7.9360   17.4310 C   0  0  0  0  0  0  0  0  0  0  0  0
    7.3610   -8.7870   17.4060 C   0  0  0  0  0  0  0  0  0  0  0  0
    8.7640  -10.6840   17.9660 C   0  0  0  0  0  0  0  0  0  0  0  0
    9.8700   -9.8220   18.0560 C   0  0  0  0  0  0  0  0  0  0  0  0
    9.7230   -8.4520   17.7800 C   0  0  0  0  0  0  0  0  0  0  0  0
    5.3000  -10.7270   18.4390 F   0  0  0  0  0  0  0  0  0  0  0  0
    5.6850  -11.0240   16.3200 F   0  0  0  0  0  0  0  0  0  0  0  0
    6.5360  -12.3860   17.7790 F   0  0  0  0  0  0  0  0  0  0  0  0
    4.5430    2.9310   11.4540 H   0  0  0  0  0  0  0  0  0  0  0  0
    0.5150    2.4930    9.8930 H   0  0  0  0  0  0  0  0  0  0  0  0
    4.6600    5.1450   10.2630 H   0  0  0  0  0  0  0  0  0  0  0  0
    4.6760    1.4690   14.3300 H   0  0  0  0  0  0  0  0  0  0  0  0
    6.0470   -3.7320   17.3930 H   0  0  0  0  0  0  0  0  0  0  0  0
    4.1910   -1.5720   17.3870 H   0  0  0  0  0  0  0  0  0  0  0  0
    3.9040   -5.7080   18.7000 H   0  0  0  0  0  0  0  0  0  0  0  0
    3.9040   -8.1940   18.5670 H   0  0  0  0  0  0  0  0  0  0  0  0
    3.5820   -9.3160   16.3610 H   0  0  0  0  0  0  0  0  0  0  0  0
    3.2530   -7.9530   14.3070 H   0  0  0  0  0  0  0  0  0  0  0  0
    3.1570   -5.4570   14.4670 H   0  0  0  0  0  0  0  0  0  0  0  0
    2.8240    0.4210   10.7590 H   0  0  0  0  0  0  0  0  0  0  0  0
    5.9050   -1.2550   14.0060 H   0  0  0  0  0  0  0  0  0  0  0  0
    1.3650    0.8870   11.6500 H   0  0  0  0  0  0  0  0  0  0  0  0
    2.6850    5.9100    8.9070 H   0  0  0  0  0  0  0  0  0  0  0  0
    6.1570    0.6510   17.3260 H   0  0  0  0  0  0  0  0  0  0  0  0
    8.3410   -0.5030    9.9340 H   0  0  0  0  0  0  0  0  0  0  0  0
    8.0480    1.8640    9.2080 H   0  0  0  0  0  0  0  0  0  0  0  0
    7.3650    3.5980   10.8630 H   0  0  0  0  0  0  0  0  0  0  0  0
    6.9590    2.9560   13.2380 H   0  0  0  0  0  0  0  0  0  0  0  0
    7.8860   -1.1410   12.3110 H   0  0  0  0  0  0  0  0  0  0  0  0
    7.9820   -0.0890   14.7750 H   0  0  0  0  0  0  0  0  0  0  0  0
    7.1050    1.3830   14.9980 H   0  0  0  0  0  0  0  0  0  0  0  0
    6.5230   -1.1580   16.4610 H   0  0  0  0  0  0  0  0  0  0  0  0
    3.5200   -1.2370   15.8190 H   0  0  0  0  0  0  0  0  0  0  0  0
    4.4960   -3.2780   14.8650 H   0  0  0  0  0  0  0  0  0  0  0  0
    9.0100   -3.5990   16.0940 H   0  0  0  0  0  0  0  0  0  0  0  0
    3.4920   -3.6430   17.7530 H   0  0  0  0  0  0  0  0  0  0  0  0
    2.5040   -3.5850   16.3230 H   0  0  0  0  0  0  0  0  0  0  0  0
    9.8180   -5.8420   15.8840 H   0  0  0  0  0  0  0  0  0  0  0  0
    8.2420   -6.1820   15.1070 H   0  0  0  0  0  0  0  0  0  0  0  0
    6.3900   -8.3610   17.1660 H   0  0  0  0  0  0  0  0  0  0  0  0
    8.8970  -11.7450   18.1800 H   0  0  0  0  0  0  0  0  0  0  0  0
   10.8420  -10.2160   18.3520 H   0  0  0  0  0  0  0  0  0  0  0  0
   10.5780   -7.7850   17.8600 H   0  0  0  0  0  0  0  0  0  0  0  0
  1  3  1  0  0  0  0
  1 20  1  0  0  0  0
  2  9  2  0  0  0  0
  2 14  1  0  0  0  0
  3 50  1  0  0  0  0
  4 65  1  0  0  0  0
  5 21  2  0  0  0  0
  6 52  1  0  0  0  0
  6  3  2  0  0  0  0
  7 22  1  0  0  0  0
  7 53  1  0  0  0  0
  8 21  1  0  0  0  0
  9  6  1  0  0  0  0
 10 37  1  0  0  0  0
 10 12  1  0  0  0  0
 11 54  1  0  0  0  0
 12 56  1  0  0  0  0
 13 34  2  0  0  0  0
 14  1  2  0  0  0  0
 15 12  2  0  0  0  0
 15 57  1  0  0  0  0
 16 15  1  0  0  0  0
 17 19  1  0  0  0  0
 17 16  2  0  0  0  0
 18 44  1  0  0  0  0
 19 10  2  0  0  0  0
 20  8  1  0  0  0  0
 21  7  1  0  0  0  0
 22 62  1  6  0  0  0
 22 31  1  0  0  0  0
 23 49  1  0  0  0  0
 23 18  1  0  0  0  0
 24 29  1  0  0  0  0
 25 24  2  0  0  0  0
 25 26  1  0  0  0  0
 26 27  2  0  0  0  0
 27 28  1  0  0  0  0
 27 69  1  0  0  0  0
 28 30  1  0  0  0  0
 29 70  1  0  0  0  0
 29 28  2  0  0  0  0
 30 71  1  0  0  0  0
 30 22  1  0  0  0  0
 30 72  1  0  0  0  0
 31 73  1  1  0  0  0
 31  4  1  0  0  0  0
 31 32  1  0  0  0  0
 32 55  1  0  0  0  0
 33 75  1  6  0  0  0
 33 32  1  0  0  0  0
 33 11  1  0  0  0  0
 33 37  1  0  0  0  0
 34 11  1  0  0  0  0
 34 35  1  0  0  0  0
 35 76  1  6  0  0  0
 35 36  1  0  0  0  0
 36 38  1  0  0  0  0
 37 77  1  0  0  0  0
 38 39  2  0  0  0  0
 40 42  1  0  0  0  0
 40 38  1  0  0  0  0
 41 35  1  0  0  0  0
 41 40  1  0  0  0  0
 42 46  2  0  0  0  0
 43 18  2  0  0  0  0
 43 42  1  0  0  0  0
 44 82  1  0  0  0  0
 44 45  2  0  0  0  0
 45 83  1  0  0  0  0
 46 45  1  0  0  0  0
 46 84  1  0  0  0  0
 47 23  1  0  0  0  0
 48 23  1  0  0  0  0
 51 14  1  0  0  0  0
 58 16  1  0  0  0  0
 59 17  1  0  0  0  0
 60 19  1  0  0  0  0
 61 20  1  0  0  0  0
 63 20  1  0  0  0  0
 64  9  1  0  0  0  0
 66 24  1  0  0  0  0
 67 25  1  0  0  0  0
 68 26  1  0  0  0  0
 74 32  1  0  0  0  0
 78 37  1  0  0  0  0
 79 41  1  0  0  0  0
 80 41  1  0  0  0  0
 81 43  1  0  0  0  0
M  END
>  <charge>
0

>  <KI_NM>
41.09

>  <number_of_rotatable_bonds>
17

>  <lm5_entropy_jk>
26.86894624216464

>  <ligand_crystal_conformation>
C

$$$$
