4XZH
 OpenBabel11252210453D

 32 33  0  0  0  0  0  0  0  0999 V2000
   14.9870   -4.1560   10.3790 Cl  0  0  0  0  0  0  0  0  0  0  0  0
   17.6580   -6.3980   13.3640 C   0  0  0  0  0  0  0  0  0  0  0  0
   16.8900   -7.6470   17.6500 N   0  0  0  0  0  0  0  0  0  0  0  0
   18.5410   -7.2120   14.3260 C   0  0  0  0  0  0  0  0  0  0  0  0
   18.1130   -5.9540   16.7160 O   0  0  0  0  0  0  0  0  0  0  0  0
   17.7990   -7.8350   15.4760 N   0  0  0  0  0  0  0  0  0  0  0  0
   17.4150   -9.1520   15.3680 C   0  0  0  0  0  0  0  0  0  0  0  0
   18.2330   -5.4000   12.5520 C   0  0  0  0  0  0  0  0  0  0  0  0
   17.4610   -4.6770   11.6040 C   0  0  0  0  0  0  0  0  0  0  0  0
   14.9780   -5.7150   17.5210 O   0  5  0  0  0  0  0  0  0  0  0  0
   16.0750   -4.9580   11.5020 C   0  0  0  0  0  0  0  0  0  0  0  0
   15.4490   -5.8360   18.6340 C   0  0  0  0  0  0  0  0  0  0  0  0
   16.5750   -6.8120   18.8610 C   0  0  0  0  0  0  0  0  0  0  0  0
   14.9400   -5.3860   19.6440 O   0  0  0  0  0  0  0  0  0  0  0  0
   16.2810   -6.6500   13.2500 C   0  0  0  0  0  0  0  0  0  0  0  0
   18.1490   -3.6500   10.7510 N   0  3  0  0  0  0  0  0  0  0  0  0
   17.5000   -2.8660   10.0670 O   0  5  0  0  0  0  0  0  0  0  0  0
   19.3720   -3.7210   10.6840 O   0  0  0  0  0  0  0  0  0  0  0  0
   15.5020   -5.9330   12.3280 C   0  0  0  0  0  0  0  0  0  0  0  0
   17.6130   -7.0640   16.6100 C   0  0  0  0  0  0  0  0  0  0  0  0
   17.6680   -9.8480   14.4050 O   0  0  0  0  0  0  0  0  0  0  0  0
   16.3940   -8.9280   17.5810 C   0  0  0  0  0  0  0  0  0  0  0  0
   16.6780   -9.6750   16.4830 C   0  0  0  0  0  0  0  0  0  0  0  0
   16.3540  -10.7020   16.3760 H   0  0  0  0  0  0  0  0  0  0  0  0
   19.3420   -6.5680   14.7180 H   0  0  0  0  0  0  0  0  0  0  0  0
   19.2930   -5.1840   12.6620 H   0  0  0  0  0  0  0  0  0  0  0  0
   17.4410   -6.2070   19.1380 H   0  0  0  0  0  0  0  0  0  0  0  0
   15.8120   -7.3970   13.8840 H   0  0  0  0  0  0  0  0  0  0  0  0
   14.4330   -6.1180   12.2540 H   0  0  0  0  0  0  0  0  0  0  0  0
   15.8180   -9.2490   18.4450 H   0  0  0  0  0  0  0  0  0  0  0  0
   16.2910   -7.4110   19.7260 H   0  0  0  0  0  0  0  0  0  0  0  0
   19.0560   -8.0050   13.7660 H   0  0  0  0  0  0  0  0  0  0  0  0
  1 11  1  0  0  0  0
  2  4  1  0  0  0  0
  2  8  2  0  0  0  0
  2 15  1  0  0  0  0
  3 13  1  0  0  0  0
  3 20  1  0  0  0  0
  3 22  1  0  0  0  0
  4  6  1  0  0  0  0
  4 25  1  0  0  0  0
  4 32  1  0  0  0  0
  5 20  2  0  0  0  0
  6  7  1  0  0  0  0
  6 20  1  0  0  0  0
  7 21  2  0  0  0  0
  7 23  1  0  0  0  0
  8  9  1  0  0  0  0
  8 26  1  0  0  0  0
  9 11  2  0  0  0  0
  9 16  1  0  0  0  0
 10 12  1  0  0  0  0
 11 19  1  0  0  0  0
 12 13  1  0  0  0  0
 12 14  2  0  0  0  0
 13 27  1  0  0  0  0
 13 31  1  0  0  0  0
 15 19  2  0  0  0  0
 15 28  1  0  0  0  0
 16 17  1  0  0  0  0
 16 18  2  0  0  0  0
 19 29  1  0  0  0  0
 22 23  2  0  0  0  0
 22 30  1  0  0  0  0
 23 24  1  0  0  0  0
M  CHG  3  10  -1  16   1  17  -1
M  END
>  <deltaG_kcalmol>
-9.66

>  <charge>
-1

>  <number_of_rotatable_bonds>
5

>  <lm5_entropy_jk>
25.077845360290652

$$$$
