3R8Z
 OpenBabel11252210453D

 30 31  0  0  1  0  0  0  0  0999 V2000
   65.8010  154.3080  -50.4890 N   0  0  0  0  0  0  0  0  0  0  0  0
   67.2080  153.4410  -52.0980 N   0  0  0  0  0  0  0  0  0  0  0  0
   69.4060  148.7550  -47.0440 N   0  0  0  0  0  0  0  0  0  0  0  0
   64.3690  154.6320  -48.6790 N   0  0  0  0  0  0  0  0  0  0  0  0
   66.8720  153.5210  -50.8180 C   0  0  0  0  0  0  0  0  0  0  0  0
   67.4030  152.7460  -49.8370 C   0  0  0  0  0  0  0  0  0  0  0  0
   68.4520  151.7390  -50.0730 C   0  0  0  0  0  0  0  0  0  0  0  0
   68.7670  150.7200  -48.9840 C   0  0  0  0  0  0  0  0  0  0  0  0
   67.7810  150.1580  -48.1390 C   0  0  0  0  0  0  0  0  0  0  0  0
   68.1430  149.2030  -47.1740 C   0  0  0  0  0  0  0  0  0  0  0  0
   70.3460  149.2280  -47.8860 C   0  0  0  0  0  0  0  0  0  0  0  0
   70.0730  150.2070  -48.8560 C   0  0  0  0  0  0  0  0  0  0  0  0
   65.5190  154.1190  -49.2140 C   0  0  0  0  0  0  0  0  0  0  0  0
   63.9850  154.5470  -47.2470 C   0  0  0  0  0  0  0  0  0  0  0  0
   62.5640  154.1010  -47.0580 C   0  0  0  0  0  0  0  0  0  0  0  0
   62.0980  153.8210  -45.8350 C   0  0  0  0  0  0  0  0  0  0  0  0
   69.0470  151.7020  -51.1380 O   0  0  0  0  0  0  0  0  0  0  0  0
   66.6300  153.0980  -48.3230 S   0  0  0  0  0  0  0  0  0  0  0  0
   66.9770  154.1950  -52.7320 H   0  0  0  0  0  0  0  0  0  0  0  0
   68.0430  152.8900  -52.2570 H   0  0  0  0  0  0  0  0  0  0  0  0
   66.7370  150.4390  -48.2370 H   0  0  0  0  0  0  0  0  0  0  0  0
   67.3960  148.7700  -46.5000 H   0  0  0  0  0  0  0  0  0  0  0  0
   71.3420  148.7890  -47.7950 H   0  0  0  0  0  0  0  0  0  0  0  0
   70.8630  150.5580  -49.5210 H   0  0  0  0  0  0  0  0  0  0  0  0
   63.7880  155.1660  -49.3260 H   0  0  0  0  0  0  0  0  0  0  0  0
   64.1100  155.5270  -46.7630 H   0  0  0  0  0  0  0  0  0  0  0  0
   64.6160  153.8270  -46.7100 H   0  0  0  0  0  0  0  0  0  0  0  0
   61.9480  154.0160  -47.9560 H   0  0  0  0  0  0  0  0  0  0  0  0
   62.7300  153.9050  -44.9490 H   0  0  0  0  0  0  0  0  0  0  0  0
   61.0800  153.4940  -45.6500 H   0  0  0  0  0  0  0  0  0  0  0  0
  1  5  1  0  0  0  0
  1 13  2  0  0  0  0
  2  5  1  0  0  0  0
  2 19  1  0  0  0  0
  2 20  1  0  0  0  0
  3 10  2  0  0  0  0
  3 11  1  0  0  0  0
  4 13  1  0  0  0  0
  4 14  1  0  0  0  0
  4 25  1  0  0  0  0
  5  6  2  0  0  0  0
  6 18  1  0  0  0  0
  7  6  1  0  0  0  0
  7  8  1  0  0  0  0
  7 17  2  0  0  0  0
  8  9  2  0  0  0  0
  8 12  1  0  0  0  0
  9 10  1  0  0  0  0
  9 21  1  0  0  0  0
 10 22  1  0  0  0  0
 11 12  2  0  0  0  0
 11 23  1  0  0  0  0
 12 24  1  0  0  0  0
 13 18  1  0  0  0  0
 14 15  1  0  0  0  0
 14 26  1  0  0  0  0
 14 27  1  0  0  0  0
 15 16  2  0  0  0  0
 15 28  1  0  0  0  0
 16 29  1  0  0  0  0
 16 30  1  0  0  0  0
M  END
>  <lm5_entropy_jk>
22.952794734129974

>  <number_of_rotatable_bonds>
5

>  <IC50_NM>
49000

>  <charge>
0

$$$$
