25d_A-chB.pdb
 OpenBabel11252210453D

 84 88  0  0  1  0  0  0  0  0999 V2000
    1.7670    2.1000   11.6600 C   0  0  0  0  0  0  0  0  0  0  0  0
    0.6380    3.9100   10.4980 N   0  0  0  0  0  0  0  0  0  0  0  0
    2.9760    2.8070   11.5990 C   0  0  0  0  0  0  0  0  0  0  0  0
    5.2740    0.5620   16.5320 O   0  0  0  0  0  0  0  0  0  0  0  0
    3.5220   -1.4210   12.8270 O   0  0  0  0  0  0  0  0  0  0  0  0
    3.0090    4.0500   10.9650 C   0  0  0  0  0  0  0  0  0  0  0  0
    4.7620    0.2440   13.9140 N   0  0  0  0  0  0  0  0  0  0  0  0
    2.6470    0.6630   13.3310 O   0  0  0  0  0  0  0  0  0  0  0  0
    1.8300    4.5560   10.3960 C   0  0  0  0  0  0  0  0  0  0  0  0
    2.9300   -5.1150   16.9220 C   0  0  0  0  0  0  0  0  0  0  0  0
    5.5620   -3.7170   16.7180 N   0  0  0  0  0  0  0  0  0  0  0  0
    3.3180   -5.9710   17.9640 C   0  0  0  0  0  0  0  0  0  0  0  0
    5.9320   -4.7090   14.7030 O   0  0  0  0  0  0  0  0  0  0  0  0
    0.6100    2.7060   11.1240 C   0  0  0  0  0  0  0  0  0  0  0  0
    3.1520   -7.3510   17.8330 C   0  0  0  0  0  0  0  0  0  0  0  0
    2.6190   -7.8860   16.6550 C   0  0  0  0  0  0  0  0  0  0  0  0
    2.2320   -7.0320   15.6180 C   0  0  0  0  0  0  0  0  0  0  0  0
    5.6510  -10.8970   18.4480 C   0  0  0  0  0  0  0  0  0  0  0  0
    2.3820   -5.6500   15.7480 C   0  0  0  0  0  0  0  0  0  0  0  0
    1.6830    0.7150   12.2430 C   0  0  0  0  0  0  0  0  0  0  0  0
    3.6400   -0.3170   13.3170 C   0  0  0  0  0  0  0  0  0  0  0  0
    5.8120   -0.6260   14.5010 C   0  0  1  0  0  0  0  0  0  0  0  0
    4.5470  -11.7920   17.9440 C   0  0  0  0  0  0  0  0  0  0  0  0
    8.0740   -0.1160   10.5470 C   0  0  0  0  0  0  0  0  0  0  0  0
    7.6860    1.1550   10.1140 C   0  0  0  0  0  0  0  0  0  0  0  0
    7.1620    2.0680   11.0330 C   0  0  0  0  0  0  0  0  0  0  0  0
    7.0180    1.7090   12.3750 C   0  0  0  0  0  0  0  0  0  0  0  0
    7.3860    0.4240   12.8090 C   0  0  0  0  0  0  0  0  0  0  0  0
    7.9230   -0.4860   11.8870 C   0  0  0  0  0  0  0  0  0  0  0  0
    7.1930    0.0310   14.2480 C   0  0  0  0  0  0  0  0  0  0  0  0
    5.5650   -0.7780   16.0310 C   0  0  2  0  0  0  0  0  0  0  0  0
    4.3270   -1.5610   16.4570 C   0  0  0  0  0  0  0  0  0  0  0  0
    4.2940   -3.0810   16.2590 C   0  0  2  0  0  0  0  0  0  0  0  0
    6.1890   -4.6390   15.8970 C   0  0  0  0  0  0  0  0  0  0  0  0
    7.2860   -5.5280   16.5190 C   0  0  1  0  0  0  0  0  0  0  0  0
    7.4290   -5.1920   17.9290 O   0  0  0  0  0  0  0  0  0  0  0  0
    3.0990   -3.6330   17.0790 C   0  0  0  0  0  0  0  0  0  0  0  0
    7.0960   -6.2800   18.7510 C   0  0  0  0  0  0  0  0  0  0  0  0
    7.1050   -6.1540   19.9440 O   0  0  0  0  0  0  0  0  0  0  0  0
    6.7660   -7.3750   17.9330 N   0  0  0  0  0  0  0  0  0  0  0  0
    6.9190   -7.0300   16.4880 C   0  0  0  0  0  0  0  0  0  0  0  0
    6.7430   -8.7360   18.3960 C   0  0  0  0  0  0  0  0  0  0  0  0
    5.7300   -9.5940   17.9380 C   0  0  0  0  0  0  0  0  0  0  0  0
    6.5620  -11.3430   19.4100 C   0  0  0  0  0  0  0  0  0  0  0  0
    7.5780  -10.4840   19.8450 C   0  0  0  0  0  0  0  0  0  0  0  0
    7.6860   -9.1890   19.3390 C   0  0  0  0  0  0  0  0  0  0  0  0
    3.3170  -11.4010   18.3280 F   0  0  0  0  0  0  0  0  0  0  0  0
    4.4520  -11.8740   16.6050 F   0  0  0  0  0  0  0  0  0  0  0  0
    4.5940  -13.0800   18.3230 F   0  0  0  0  0  0  0  0  0  0  0  0
    3.8920    2.3950   12.0360 H   0  0  0  0  0  0  0  0  0  0  0  0
   -0.3720    2.2100   11.1850 H   0  0  0  0  0  0  0  0  0  0  0  0
    3.9440    4.6150   10.8850 H   0  0  0  0  0  0  0  0  0  0  0  0
    4.6570    1.1480   14.4040 H   0  0  0  0  0  0  0  0  0  0  0  0
    5.7230   -3.6990   17.7410 H   0  0  0  0  0  0  0  0  0  0  0  0
    4.2290   -1.3620   17.5590 H   0  0  0  0  0  0  0  0  0  0  0  0
    3.7400   -5.5570   18.8810 H   0  0  0  0  0  0  0  0  0  0  0  0
    3.4340   -8.0070   18.6560 H   0  0  0  0  0  0  0  0  0  0  0  0
    2.5000   -8.9660   16.5540 H   0  0  0  0  0  0  0  0  0  0  0  0
    1.8070   -7.4450   14.7070 H   0  0  0  0  0  0  0  0  0  0  0  0
    2.0540   -4.9870   14.9500 H   0  0  0  0  0  0  0  0  0  0  0  0
    1.9130   -0.0600   11.4710 H   0  0  0  0  0  0  0  0  0  0  0  0
    5.7970   -1.6360   14.0140 H   0  0  0  0  0  0  0  0  0  0  0  0
    0.7040    0.5220   12.7440 H   0  0  0  0  0  0  0  0  0  0  0  0
    1.8400    5.5010    9.8310 H   0  0  0  0  0  0  0  0  0  0  0  0
    6.1580    0.8690   16.9660 H   0  0  0  0  0  0  0  0  0  0  0  0
    8.5000   -0.8250    9.8380 H   0  0  0  0  0  0  0  0  0  0  0  0
    7.7950    1.4380    9.0650 H   0  0  0  0  0  0  0  0  0  0  0  0
    6.8660    3.0690   10.7060 H   0  0  0  0  0  0  0  0  0  0  0  0
    6.6180    2.4350   13.0870 H   0  0  0  0  0  0  0  0  0  0  0  0
    8.2370   -1.4760   12.2150 H   0  0  0  0  0  0  0  0  0  0  0  0
    7.9890   -0.6830   14.5750 H   0  0  0  0  0  0  0  0  0  0  0  0
    7.2990    0.9370   14.9040 H   0  0  0  0  0  0  0  0  0  0  0  0
    6.4800   -1.1620   16.5390 H   0  0  0  0  0  0  0  0  0  0  0  0
    3.4250   -1.1350   15.9530 H   0  0  0  0  0  0  0  0  0  0  0  0
    4.1480   -3.3210   15.1710 H   0  0  0  0  0  0  0  0  0  0  0  0
    8.2820   -5.3020   16.0640 H   0  0  0  0  0  0  0  0  0  0  0  0
    3.2530   -3.3830   18.1610 H   0  0  0  0  0  0  0  0  0  0  0  0
    2.1700   -3.1010   16.7610 H   0  0  0  0  0  0  0  0  0  0  0  0
    7.7270   -7.6450   16.0130 H   0  0  0  0  0  0  0  0  0  0  0  0
    5.9440   -7.2210   15.9640 H   0  0  0  0  0  0  0  0  0  0  0  0
    5.0210   -9.2490   17.1790 H   0  0  0  0  0  0  0  0  0  0  0  0
    6.5120  -12.3540   19.8290 H   0  0  0  0  0  0  0  0  0  0  0  0
    8.3010  -10.8370   20.5900 H   0  0  0  0  0  0  0  0  0  0  0  0
    8.5030   -8.5490   19.6810 H   0  0  0  0  0  0  0  0  0  0  0  0
  1  3  1  0  0  0  0
  1 20  1  0  0  0  0
  2  9  2  0  0  0  0
  2 14  1  0  0  0  0
  3 50  1  0  0  0  0
  4 65  1  0  0  0  0
  5 21  2  0  0  0  0
  6 52  1  0  0  0  0
  6  3  2  0  0  0  0
  7 22  1  0  0  0  0
  7 53  1  0  0  0  0
  8 21  1  0  0  0  0
  9  6  1  0  0  0  0
 10 37  1  0  0  0  0
 10 12  1  0  0  0  0
 11 54  1  0  0  0  0
 12 56  1  0  0  0  0
 13 34  2  0  0  0  0
 14  1  2  0  0  0  0
 15 12  2  0  0  0  0
 15 57  1  0  0  0  0
 16 15  1  0  0  0  0
 17 19  1  0  0  0  0
 17 16  2  0  0  0  0
 18 44  1  0  0  0  0
 19 10  2  0  0  0  0
 20  8  1  0  0  0  0
 21  7  1  0  0  0  0
 22 62  1  6  0  0  0
 22 31  1  0  0  0  0
 23 49  1  0  0  0  0
 23 18  1  0  0  0  0
 24 29  1  0  0  0  0
 25 24  2  0  0  0  0
 25 26  1  0  0  0  0
 26 27  2  0  0  0  0
 27 28  1  0  0  0  0
 27 69  1  0  0  0  0
 28 30  1  0  0  0  0
 29 70  1  0  0  0  0
 29 28  2  0  0  0  0
 30 71  1  0  0  0  0
 30 22  1  0  0  0  0
 30 72  1  0  0  0  0
 31 73  1  1  0  0  0
 31  4  1  0  0  0  0
 31 32  1  0  0  0  0
 32 55  1  0  0  0  0
 33 75  1  6  0  0  0
 33 32  1  0  0  0  0
 33 11  1  0  0  0  0
 33 37  1  0  0  0  0
 34 11  1  0  0  0  0
 34 35  1  0  0  0  0
 35 76  1  6  0  0  0
 35 36  1  0  0  0  0
 36 38  1  0  0  0  0
 37 77  1  0  0  0  0
 38 39  2  0  0  0  0
 40 42  1  0  0  0  0
 40 38  1  0  0  0  0
 41 35  1  0  0  0  0
 41 40  1  0  0  0  0
 42 46  2  0  0  0  0
 43 18  2  0  0  0  0
 43 42  1  0  0  0  0
 44 82  1  0  0  0  0
 44 45  2  0  0  0  0
 45 83  1  0  0  0  0
 46 45  1  0  0  0  0
 46 84  1  0  0  0  0
 47 23  1  0  0  0  0
 48 23  1  0  0  0  0
 51 14  1  0  0  0  0
 58 16  1  0  0  0  0
 59 17  1  0  0  0  0
 60 19  1  0  0  0  0
 61 20  1  0  0  0  0
 63 20  1  0  0  0  0
 64  9  1  0  0  0  0
 66 24  1  0  0  0  0
 67 25  1  0  0  0  0
 68 26  1  0  0  0  0
 74 32  1  0  0  0  0
 78 37  1  0  0  0  0
 79 41  1  0  0  0  0
 80 41  1  0  0  0  0
 81 43  1  0  0  0  0
M  END
>  <charge>
0

>  <KI_NM>
41.09

>  <number_of_rotatable_bonds>
17

>  <lm5_entropy_jk>
26.86894624216464

>  <ligand_crystal_conformation>
C

$$$$
