JF48_4xzh.pdb
 OpenBabel11252210453D

 32 33  0  0  0  0  0  0  0  0999 V2000
   14.8880   -4.1300   10.3710 Cl  0  0  0  0  0  0  0  0  0  0  0  0
   17.4950   -6.3970   13.3030 C   0  0  0  0  0  0  0  0  0  0  0  0
   16.8820   -7.8170   17.6430 N   0  0  0  0  0  0  0  0  0  0  0  0
   18.4000   -7.1760   14.2340 C   0  0  0  0  0  0  0  0  0  0  0  0
   18.0030   -5.9950   16.7240 O   0  0  0  0  0  0  0  0  0  0  0  0
   17.7000   -7.8480   15.3620 N   0  0  0  0  0  0  0  0  0  0  0  0
   17.3740   -9.2570   15.2220 C   0  0  0  0  0  0  0  0  0  0  0  0
   18.0690   -5.4170   12.4850 C   0  0  0  0  0  0  0  0  0  0  0  0
   17.2900   -4.7210   11.5360 C   0  0  0  0  0  0  0  0  0  0  0  0
   15.0940   -5.7870   17.3600 O   0  5  0  0  0  0  0  0  0  0  0  0
   15.9150   -4.9790   11.4540 C   0  0  0  0  0  0  0  0  0  0  0  0
   15.4470   -5.9350   18.5380 C   0  0  0  0  0  0  0  0  0  0  0  0
   16.5360   -7.0430   18.8620 C   0  0  0  0  0  0  0  0  0  0  0  0
   14.9990   -5.3470   19.5380 O   0  0  0  0  0  0  0  0  0  0  0  0
   16.1170   -6.6580   13.1850 C   0  0  0  0  0  0  0  0  0  0  0  0
   17.9740   -3.7550   10.6610 N   0  3  0  0  0  0  0  0  0  0  0  0
   17.3210   -3.0130    9.9450 O   0  5  0  0  0  0  0  0  0  0  0  0
   19.2000   -3.7660   10.6640 O   0  0  0  0  0  0  0  0  0  0  0  0
   15.3320   -5.9510   12.2730 C   0  0  0  0  0  0  0  0  0  0  0  0
   17.5450   -7.1090   16.5770 C   0  0  0  0  0  0  0  0  0  0  0  0
   17.6820   -9.8110   14.1800 O   0  0  0  0  0  0  0  0  0  0  0  0
   16.4580   -9.1240   17.4990 C   0  0  0  0  0  0  0  0  0  0  0  0
   16.7190   -9.8350   16.3630 C   0  0  0  0  0  0  0  0  0  0  0  0
   16.4390  -10.8900   16.3010 H   0  0  0  0  0  0  0  0  0  0  0  0
   19.2010   -6.5020   14.6500 H   0  0  0  0  0  0  0  0  0  0  0  0
   19.1350   -5.1780   12.5660 H   0  0  0  0  0  0  0  0  0  0  0  0
   17.4750   -6.5800   19.2560 H   0  0  0  0  0  0  0  0  0  0  0  0
   15.6430   -7.4200   13.8120 H   0  0  0  0  0  0  0  0  0  0  0  0
   14.2560   -6.1400   12.1930 H   0  0  0  0  0  0  0  0  0  0  0  0
   15.9320   -9.6010   18.3420 H   0  0  0  0  0  0  0  0  0  0  0  0
   16.1540   -7.7490   19.6380 H   0  0  0  0  0  0  0  0  0  0  0  0
   18.9020   -7.9980   13.6400 H   0  0  0  0  0  0  0  0  0  0  0  0
  1 11  1  0  0  0  0
  2  4  1  0  0  0  0
  2  8  2  0  0  0  0
  2 15  1  0  0  0  0
  3 13  1  0  0  0  0
  3 20  1  0  0  0  0
  3 22  1  0  0  0  0
  4  6  1  0  0  0  0
  4 25  1  0  0  0  0
  4 32  1  0  0  0  0
  5 20  2  0  0  0  0
  6  7  1  0  0  0  0
  6 20  1  0  0  0  0
  7 21  2  0  0  0  0
  7 23  1  0  0  0  0
  8  9  1  0  0  0  0
  8 26  1  0  0  0  0
  9 11  2  0  0  0  0
  9 16  1  0  0  0  0
 10 12  1  0  0  0  0
 11 19  1  0  0  0  0
 12 13  1  0  0  0  0
 12 14  2  0  0  0  0
 13 27  1  0  0  0  0
 13 31  1  0  0  0  0
 15 19  2  0  0  0  0
 15 28  1  0  0  0  0
 16 17  1  0  0  0  0
 16 18  2  0  0  0  0
 19 29  1  0  0  0  0
 22 23  2  0  0  0  0
 22 30  1  0  0  0  0
 23 24  1  0  0  0  0
M  CHG  3  10  -1  16   1  17  -1
M  END
>  <deltaG_kcalmol>
-9.66

>  <charge>
-1

>  <number_of_rotatable_bonds>
5

>  <lm5_entropy_jk>
25.077845360290652

$$$$
