3F15
 OpenBabel11252210453D

 40 40  0  0  1  0  0  0  0  0999 V2000
    5.7800   25.5040    4.7660 C   0  0  0  0  0  0  0  0  0  0  0  0
    7.9150   27.1260    2.3820 N   0  0  0  0  0  0  0  0  0  0  0  0
    7.6740   27.6740    4.8550 O   0  0  0  0  0  0  0  0  0  0  0  0
    8.1350   26.5700    4.0160 S   0  0  0  0  0  0  0  0  0  0  0  0
    4.9790   24.4350    5.1610 C   0  0  0  0  0  0  0  0  0  0  0  0
    8.8020   23.9710    0.9850 N   0  0  0  0  0  0  0  0  0  0  0  0
    9.5260   26.1150    4.0840 O   0  0  0  0  0  0  0  0  0  0  0  0
    7.0510   25.2270    4.2560 C   0  0  0  0  0  0  0  0  0  0  0  0
    4.7080   22.0540    5.5180 O   0  0  0  0  0  0  0  0  0  0  0  0
    5.4370   23.1260    5.0470 C   0  0  0  0  0  0  0  0  0  0  0  0
    7.0240   30.1660    4.2670 O   0  0  0  0  0  0  0  0  0  0  0  0
    7.5230   23.9190    4.0990 C   0  0  0  0  0  0  0  0  0  0  0  0
    8.4460   22.6590    0.4970 O   0  0  0  0  0  0  0  0  0  0  0  0
    7.4750   29.6350    1.8900 C   0  0  1  0  0  0  0  0  0  0  0  0
    8.5770   29.5280    1.0140 O   0  0  0  0  0  0  0  0  0  0  0  0
    6.6840   22.8790    4.4900 C   0  0  0  0  0  0  0  0  0  0  0  0
    6.8120   24.8670    0.3530 O   0  0  0  0  0  0  0  0  0  0  0  0
    6.8860   28.2040    2.0570 C   0  0  0  0  0  0  0  0  0  0  0  0
    7.9410   25.0300    0.8160 C   0  0  0  0  0  0  0  0  0  0  0  0
    3.3890   22.1440    6.1220 C   0  0  0  0  0  0  0  0  0  0  0  0
    8.5250   26.4090    1.1600 C   0  0  0  0  0  0  0  0  0  0  0  0
    7.9850   30.2800    3.2030 C   0  0  0  0  0  0  0  0  0  0  0  0
    5.4170   26.5260    4.9090 H   0  0  0  0  0  0  0  0  0  0  0  0
    3.9960   24.6320    5.5680 H   0  0  0  0  0  0  0  0  0  0  0  0
    9.7730   24.0850    1.2940 H   0  0  0  0  0  0  0  0  0  0  0  0
    7.1510   29.2500    4.6430 H   0  0  0  0  0  0  0  0  0  0  0  0
    8.5260   23.6910    3.7190 H   0  0  0  0  0  0  0  0  0  0  0  0
    8.5410   22.0480    1.2920 H   0  0  0  0  0  0  0  0  0  0  0  0
    6.6990   30.2990    1.4660 H   0  0  0  0  0  0  0  0  0  0  0  0
    8.8940   28.6200    1.1970 H   0  0  0  0  0  0  0  0  0  0  0  0
    7.0050   21.8490    4.3780 H   0  0  0  0  0  0  0  0  0  0  0  0
    6.3300   27.9580    1.1370 H   0  0  0  0  0  0  0  0  0  0  0  0
    6.1110   28.2650    2.8380 H   0  0  0  0  0  0  0  0  0  0  0  0
    3.0220   21.1420    6.3890 H   0  0  0  0  0  0  0  0  0  0  0  0
    2.6640   22.5860    5.4230 H   0  0  0  0  0  0  0  0  0  0  0  0
    3.4100   22.7470    7.0400 H   0  0  0  0  0  0  0  0  0  0  0  0
    8.4030   26.9830    0.2270 H   0  0  0  0  0  0  0  0  0  0  0  0
    9.6130   26.2690    1.2800 H   0  0  0  0  0  0  0  0  0  0  0  0
    8.2220   31.3370    2.9950 H   0  0  0  0  0  0  0  0  0  0  0  0
    8.9320   29.8010    3.4880 H   0  0  0  0  0  0  0  0  0  0  0  0
  1  8  2  0  0  0  0
  1  5  1  0  0  0  0
  1 23  1  0  0  0  0
  2 21  1  0  0  0  0
  2 18  1  0  0  0  0
  2  4  1  0  0  0  0
  3  4  2  0  0  0  0
  4  7  2  0  0  0  0
  4  8  1  0  0  0  0
  5 10  2  0  0  0  0
  5 24  1  0  0  0  0
  6 13  1  0  0  0  0
  6 19  1  0  0  0  0
  6 25  1  0  0  0  0
  8 12  1  0  0  0  0
  9 10  1  0  0  0  0
  9 20  1  0  0  0  0
 10 16  1  0  0  0  0
 11 22  1  0  0  0  0
 11 26  1  0  0  0  0
 12 16  2  0  0  0  0
 12 27  1  0  0  0  0
 13 28  1  0  0  0  0
 14 15  1  0  0  0  0
 14 18  1  0  0  0  0
 14 22  1  0  0  0  0
 14 29  1  6  0  0  0
 15 30  1  0  0  0  0
 16 31  1  0  0  0  0
 17 19  2  0  0  0  0
 18 32  1  0  0  0  0
 18 33  1  0  0  0  0
 19 21  1  0  0  0  0
 20 34  1  0  0  0  0
 20 35  1  0  0  0  0
 20 36  1  0  0  0  0
 21 37  1  0  0  0  0
 21 38  1  0  0  0  0
 22 39  1  0  0  0  0
 22 40  1  0  0  0  0
M  END
>  <COMPND>
3f15.pdb

>  <AUTHOR>
GENERATED BY OPEN BABEL 2.3.1

>  <MASTER>
0    0    0    0    0    0    0    0   40    0   40    0

>  <lm5_entropy_jk>
33.444459229930345

>  <number_of_rotatable_bonds>
9

>  <deltaG_kcalmol>
-11.06

>  <charge>
0

$$$$
