3F15
 OpenBabel11252210453D

 40 40  0  0  1  0  0  0  0  0999 V2000
    5.6500   25.4640    4.2490 C   0  0  0  0  0  0  0  0  0  0  0  0
    7.7520   27.4260    2.4360 N   0  0  0  0  0  0  0  0  0  0  0  0
    7.5150   27.5370    4.9460 O   0  0  0  0  0  0  0  0  0  0  0  0
    8.0510   26.6170    3.9450 S   0  0  0  0  0  0  0  0  0  0  0  0
    4.8560   24.4030    4.6800 C   0  0  0  0  0  0  0  0  0  0  0  0
    8.7620   24.4820    0.9880 N   0  0  0  0  0  0  0  0  0  0  0  0
    9.4610   26.2230    3.9860 O   0  0  0  0  0  0  0  0  0  0  0  0
    7.0060   25.2310    4.0350 C   0  0  0  0  0  0  0  0  0  0  0  0
    4.6990   22.1070    5.4520 O   0  0  0  0  0  0  0  0  0  0  0  0
    5.4150   23.1430    4.8870 C   0  0  0  0  0  0  0  0  0  0  0  0
    7.5790   30.1940    4.9680 O   0  0  0  0  0  0  0  0  0  0  0  0
    7.5680   23.9540    4.1280 C   0  0  0  0  0  0  0  0  0  0  0  0
    8.7220   23.1690    0.3950 O   0  0  0  0  0  0  0  0  0  0  0  0
    7.8940   30.0530    2.5220 C   0  0  1  0  0  0  0  0  0  0  0  0
    8.8990   29.9410    1.5440 O   0  0  0  0  0  0  0  0  0  0  0  0
    6.7450   22.9180    4.5640 C   0  0  0  0  0  0  0  0  0  0  0  0
    6.6270   24.9350    0.3400 O   0  0  0  0  0  0  0  0  0  0  0  0
    7.0260   28.7780    2.4120 C   0  0  0  0  0  0  0  0  0  0  0  0
    7.7040   25.3410    0.7890 C   0  0  0  0  0  0  0  0  0  0  0  0
    3.3360   22.2090    5.9510 C   0  0  0  0  0  0  0  0  0  0  0  0
    8.0400   26.8320    1.0350 C   0  0  0  0  0  0  0  0  0  0  0  0
    8.5470   30.2800    3.9080 C   0  0  0  0  0  0  0  0  0  0  0  0
    5.2170   26.4600    4.1450 H   0  0  0  0  0  0  0  0  0  0  0  0
    3.8070   24.5710    4.8820 H   0  0  0  0  0  0  0  0  0  0  0  0
    9.6850   24.8040    1.2820 H   0  0  0  0  0  0  0  0  0  0  0  0
    7.4130   29.2230    5.1120 H   0  0  0  0  0  0  0  0  0  0  0  0
    8.6270   23.7550    3.9290 H   0  0  0  0  0  0  0  0  0  0  0  0
    8.6780   22.5240    1.1660 H   0  0  0  0  0  0  0  0  0  0  0  0
    7.2510   30.9290    2.3130 H   0  0  0  0  0  0  0  0  0  0  0  0
    8.9070   28.9810    1.3560 H   0  0  0  0  0  0  0  0  0  0  0  0
    7.1410   21.9150    4.6750 H   0  0  0  0  0  0  0  0  0  0  0  0
    6.4230   28.8810    1.4950 H   0  0  0  0  0  0  0  0  0  0  0  0
    6.2830   28.8450    3.2250 H   0  0  0  0  0  0  0  0  0  0  0  0
    2.9990   21.2330    6.3300 H   0  0  0  0  0  0  0  0  0  0  0  0
    2.6410   22.5120    5.1530 H   0  0  0  0  0  0  0  0  0  0  0  0
    3.2680   22.9290    6.7770 H   0  0  0  0  0  0  0  0  0  0  0  0
    7.4900   27.3700    0.2480 H   0  0  0  0  0  0  0  0  0  0  0  0
    9.1010   26.9380    0.7590 H   0  0  0  0  0  0  0  0  0  0  0  0
    9.0350   31.2690    3.8980 H   0  0  0  0  0  0  0  0  0  0  0  0
    9.3370   29.5410    4.0670 H   0  0  0  0  0  0  0  0  0  0  0  0
  1  8  2  0  0  0  0
  1  5  1  0  0  0  0
  1 23  1  0  0  0  0
  2 21  1  0  0  0  0
  2 18  1  0  0  0  0
  2  4  1  0  0  0  0
  3  4  2  0  0  0  0
  4  7  2  0  0  0  0
  4  8  1  0  0  0  0
  5 10  2  0  0  0  0
  5 24  1  0  0  0  0
  6 13  1  0  0  0  0
  6 19  1  0  0  0  0
  6 25  1  0  0  0  0
  8 12  1  0  0  0  0
  9 10  1  0  0  0  0
  9 20  1  0  0  0  0
 10 16  1  0  0  0  0
 11 22  1  0  0  0  0
 11 26  1  0  0  0  0
 12 16  2  0  0  0  0
 12 27  1  0  0  0  0
 13 28  1  0  0  0  0
 14 15  1  0  0  0  0
 14 18  1  0  0  0  0
 14 22  1  0  0  0  0
 14 29  1  6  0  0  0
 15 30  1  0  0  0  0
 16 31  1  0  0  0  0
 17 19  2  0  0  0  0
 18 32  1  0  0  0  0
 18 33  1  0  0  0  0
 19 21  1  0  0  0  0
 20 34  1  0  0  0  0
 20 35  1  0  0  0  0
 20 36  1  0  0  0  0
 21 37  1  0  0  0  0
 21 38  1  0  0  0  0
 22 39  1  0  0  0  0
 22 40  1  0  0  0  0
M  END
>  <lm5_entropy_jk>
33.444459229930345

>  <number_of_rotatable_bonds>
9

>  <deltaG_kcalmol>
-11.06

>  <charge>
0

$$$$
