4LBS
 OpenBabel11252210453D

 35 36  0  0  0  0  0  0  0  0999 V2000
   14.3150  -11.8390   19.0990 Cl  0  0  0  0  0  0  0  0  0  0  0  0
   17.8370   -5.8820   13.1610 C   0  0  0  0  0  0  0  0  0  0  0  0
   18.5660   -4.9210   12.4370 C   0  0  0  0  0  0  0  0  0  0  0  0
   16.4780   -6.0660   12.8100 C   0  0  0  0  0  0  0  0  0  0  0  0
   17.9870   -4.1900   11.3920 C   0  0  0  0  0  0  0  0  0  0  0  0
   15.8980   -5.3330   11.7650 C   0  0  0  0  0  0  0  0  0  0  0  0
   16.6460   -4.3890   11.0560 C   0  0  0  0  0  0  0  0  0  0  0  0
   18.5740   -6.6500   14.2820 C   0  0  0  0  0  0  0  0  0  0  0  0
   17.7350   -7.5240   15.1220 N   0  0  0  0  0  0  0  0  0  0  0  0
   17.7130   -8.8960   15.0780 C   0  0  0  0  0  0  0  0  0  0  0  0
   16.8610   -9.5880   16.0890 C   0  0  0  0  0  0  0  0  0  0  0  0
   16.4830   -8.9720   17.2920 C   0  0  0  0  0  0  0  0  0  0  0  0
   16.4470  -10.9060   15.8200 C   0  0  0  0  0  0  0  0  0  0  0  0
   15.6370   -9.6470   18.1790 C   0  0  0  0  0  0  0  0  0  0  0  0
   15.6450  -11.5860   16.7450 C   0  0  0  0  0  0  0  0  0  0  0  0
   15.2370  -10.9540   17.9160 C   0  0  0  0  0  0  0  0  0  0  0  0
   18.3410   -9.5290   14.2490 O   0  0  0  0  0  0  0  0  0  0  0  0
   17.0530   -7.7610   17.6390 O   0  0  0  0  0  0  0  0  0  0  0  0
   16.6990   -6.9030   18.7690 C   0  0  0  0  0  0  0  0  0  0  0  0
   15.5600   -5.9310   18.5150 C   0  0  0  0  0  0  0  0  0  0  0  0
   15.0150   -5.4830   19.5110 O   0  0  0  0  0  0  0  0  0  0  0  0
   15.1780   -5.7310   17.3790 O   0  5  0  0  0  0  0  0  0  0  0  0
   15.8190   -3.3200    9.7030 Br  0  0  0  0  0  0  0  0  0  0  0  0
   15.6920   -6.9340   13.4700 F   0  0  0  0  0  0  0  0  0  0  0  0
   19.8510   -4.6820   12.7590 F   0  0  0  0  0  0  0  0  0  0  0  0
   17.5480   -6.2710   19.0300 H   0  0  0  0  0  0  0  0  0  0  0  0
   18.5710   -3.4290   10.8840 H   0  0  0  0  0  0  0  0  0  0  0  0
   14.8440   -5.4790   11.5410 H   0  0  0  0  0  0  0  0  0  0  0  0
   19.0770   -5.9190   14.9330 H   0  0  0  0  0  0  0  0  0  0  0  0
   17.2080   -7.1380   15.9030 H   0  0  0  0  0  0  0  0  0  0  0  0
   16.7510  -11.4050   14.8970 H   0  0  0  0  0  0  0  0  0  0  0  0
   15.3410   -9.1880   19.1090 H   0  0  0  0  0  0  0  0  0  0  0  0
   15.3400  -12.6140   16.5520 H   0  0  0  0  0  0  0  0  0  0  0  0
   16.4430   -7.4690   19.6620 H   0  0  0  0  0  0  0  0  0  0  0  0
   19.3810   -7.2600   13.8490 H   0  0  0  0  0  0  0  0  0  0  0  0
  1 16  1  0  0  0  0
  2  3  2  0  0  0  0
  2  4  1  0  0  0  0
  2  8  1  0  0  0  0
  3  5  1  0  0  0  0
  3 25  1  0  0  0  0
  4  6  2  0  0  0  0
  4 24  1  0  0  0  0
  5  7  2  0  0  0  0
  5 27  1  0  0  0  0
  6  7  1  0  0  0  0
  6 28  1  0  0  0  0
  7 23  1  0  0  0  0
  8  9  1  0  0  0  0
  8 29  1  0  0  0  0
  8 35  1  0  0  0  0
  9 10  1  0  0  0  0
  9 30  1  0  0  0  0
 10 11  1  0  0  0  0
 10 17  2  0  0  0  0
 11 12  2  0  0  0  0
 11 13  1  0  0  0  0
 12 14  1  0  0  0  0
 12 18  1  0  0  0  0
 13 15  2  0  0  0  0
 13 31  1  0  0  0  0
 14 16  2  0  0  0  0
 14 32  1  0  0  0  0
 15 16  1  0  0  0  0
 15 33  1  0  0  0  0
 18 19  1  0  0  0  0
 19 20  1  0  0  0  0
 19 26  1  0  0  0  0
 19 34  1  0  0  0  0
 20 21  2  0  0  0  0
 20 22  1  0  0  0  0
M  CHG  1  22  -1
M  END
>  <deltaG_kcalmol>
-9.64

>  <charge>
-1

>  <lm5_entropy_jk>
25.63780735381752

>  <number_of_rotatable_bonds>
7

$$$$
