5NXO
 OpenBabel11252210453D

 31 32  0  0  0  0  0  0  0  0999 V2000
   -5.6780    1.2840   16.0430 N   0  5  0  0  0  0  0  0  0  0  0  0
   -5.2100    3.7080   15.4710 C   0  0  0  0  0  0  0  0  0  0  0  0
   -7.1120    3.0500   17.0770 O   0  0  0  0  0  0  0  0  0  0  0  0
   -5.9820    4.8420   15.1460 C   0  0  0  0  0  0  0  0  0  0  0  0
   -0.4130   10.8690   14.1980 N   0  3  0  0  0  0  0  0  0  0  0  0
   -4.7380    2.7250   17.7650 O   0  0  0  0  0  0  0  0  0  0  0  0
   -5.5240    5.7290   14.1630 C   0  0  0  0  0  0  0  0  0  0  0  0
   -0.5030   11.2540   15.3620 O   0  5  0  0  0  0  0  0  0  0  0  0
   -4.3000    5.5140   13.5240 C   0  0  0  0  0  0  0  0  0  0  0  0
    0.3940   11.3320   13.3910 O   0  0  0  0  0  0  0  0  0  0  0  0
   -3.8130    6.4700   12.4630 C   0  0  0  0  0  0  0  0  0  0  0  0
   -2.8900    7.5610   12.9590 C   0  0  0  0  0  0  0  0  0  0  0  0
   -1.9420    8.1030   12.0840 C   0  0  0  0  0  0  0  0  0  0  0  0
   -1.1200    9.1720   12.4800 C   0  0  0  0  0  0  0  0  0  0  0  0
   -1.2570    9.7160   13.7740 C   0  0  0  0  0  0  0  0  0  0  0  0
   -2.2090    9.1700   14.6600 C   0  0  0  0  0  0  0  0  0  0  0  0
   -3.0110    8.0910   14.2490 C   0  0  0  0  0  0  0  0  0  0  0  0
   -3.5270    4.4060   13.8720 C   0  0  0  0  0  0  0  0  0  0  0  0
   -3.9620    3.5040   14.8530 C   0  0  0  0  0  0  0  0  0  0  0  0
   -5.7640    2.6480   16.7630 S   0  0  0  0  0  0  0  0  0  0  0  0
   -6.9190    5.0540   15.6690 H   0  0  0  0  0  0  0  0  0  0  0  0
   -6.1160    6.6050   13.9100 H   0  0  0  0  0  0  0  0  0  0  0  0
   -4.8600    1.1860   16.7020 H   0  0  0  0  0  0  0  0  0  0  0  0
   -1.8480    7.7040   11.0760 H   0  0  0  0  0  0  0  0  0  0  0  0
   -0.3940    9.5820   11.7750 H   0  0  0  0  0  0  0  0  0  0  0  0
   -2.3370    9.5860   15.6580 H   0  0  0  0  0  0  0  0  0  0  0  0
   -3.7450    7.6780   14.9350 H   0  0  0  0  0  0  0  0  0  0  0  0
   -2.5690    4.2510   13.3840 H   0  0  0  0  0  0  0  0  0  0  0  0
   -3.3270    2.6620   15.1320 H   0  0  0  0  0  0  0  0  0  0  0  0
   -4.6650    6.9410   11.9650 H   0  0  0  0  0  0  0  0  0  0  0  0
   -3.3120    5.8960   11.6760 H   0  0  0  0  0  0  0  0  0  0  0  0
  1 20  1  0  0  0  0
  2  4  2  0  0  0  0
  2 19  1  0  0  0  0
  2 20  1  0  0  0  0
  3 20  2  0  0  0  0
  4  7  1  0  0  0  0
  5  8  1  0  0  0  0
  5 10  2  0  0  0  0
  5 15  1  0  0  0  0
  6 20  2  0  0  0  0
  7  9  2  0  0  0  0
  9 11  1  0  0  0  0
  9 18  1  0  0  0  0
 11 12  1  0  0  0  0
 12 13  2  0  0  0  0
 12 17  1  0  0  0  0
 13 14  1  0  0  0  0
 14 15  2  0  0  0  0
 15 16  1  0  0  0  0
 16 17  2  0  0  0  0
 18 19  2  0  0  0  0
 21  4  1  0  0  0  0
 22  7  1  0  0  0  0
 23  1  1  0  0  0  0
 24 13  1  0  0  0  0
 25 14  1  0  0  0  0
 26 16  1  0  0  0  0
 27 17  1  0  0  0  0
 28 18  1  0  0  0  0
 29 19  1  0  0  0  0
 30 11  1  0  0  0  0
 31 11  1  0  0  0  0
M  CHG  3   1  -1   5   1   8  -1
M  END
>  <deltaG_kcalmol>
-11.3

>  <number_of_rotatable_bonds>
4

>  <charge>
-1

>  <lm5_entropy_jk>
23.26150331504224

$$$$
