5NXO
 OpenBabel11252210453D

 31 32  0  0  0  0  0  0  0  0999 V2000
   -5.8780    1.3340   16.0830 N   0  5  0  0  0  0  0  0  0  0  0  0
   -5.3960    3.7560   15.5220 C   0  0  0  0  0  0  0  0  0  0  0  0
   -7.3360    3.1010   17.0900 O   0  0  0  0  0  0  0  0  0  0  0  0
   -6.0970    4.9520   15.2660 C   0  0  0  0  0  0  0  0  0  0  0  0
   -0.2270   10.6720   13.8340 N   0  3  0  0  0  0  0  0  0  0  0  0
   -4.9770    2.7420   17.8170 O   0  0  0  0  0  0  0  0  0  0  0  0
   -5.6230    5.8300   14.2820 C   0  0  0  0  0  0  0  0  0  0  0  0
   -0.3810   11.2660   14.8990 O   0  5  0  0  0  0  0  0  0  0  0  0
   -4.4620    5.5330   13.5630 C   0  0  0  0  0  0  0  0  0  0  0  0
    0.6810   10.9240   13.0420 O   0  0  0  0  0  0  0  0  0  0  0  0
   -3.9860    6.4480   12.4620 C   0  0  0  0  0  0  0  0  0  0  0  0
   -2.9600    7.4770   12.8750 C   0  0  0  0  0  0  0  0  0  0  0  0
   -2.0070    7.8980   11.9420 C   0  0  0  0  0  0  0  0  0  0  0  0
   -1.0980    8.9240   12.2520 C   0  0  0  0  0  0  0  0  0  0  0  0
   -1.1540    9.5500   13.5140 C   0  0  0  0  0  0  0  0  0  0  0  0
   -2.1090    9.1210   14.4610 C   0  0  0  0  0  0  0  0  0  0  0  0
   -3.0000    8.0830   14.1360 C   0  0  0  0  0  0  0  0  0  0  0  0
   -3.7560    4.3650   13.8450 C   0  0  0  0  0  0  0  0  0  0  0  0
   -4.1980    3.4780   14.8360 C   0  0  0  0  0  0  0  0  0  0  0  0
   -5.9870    2.6960   16.7970 S   0  0  0  0  0  0  0  0  0  0  0  0
   -6.9970    5.2120   15.8310 H   0  0  0  0  0  0  0  0  0  0  0  0
   -6.1590    6.7540   14.0850 H   0  0  0  0  0  0  0  0  0  0  0  0
   -5.0580    1.2940   16.7470 H   0  0  0  0  0  0  0  0  0  0  0  0
   -1.9810    7.4430   10.9540 H   0  0  0  0  0  0  0  0  0  0  0  0
   -0.3720    9.2420   11.5010 H   0  0  0  0  0  0  0  0  0  0  0  0
   -2.1690    9.5970   15.4400 H   0  0  0  0  0  0  0  0  0  0  0  0
   -3.7390    7.7590   14.8640 H   0  0  0  0  0  0  0  0  0  0  0  0
   -2.8480    4.1460   13.2910 H   0  0  0  0  0  0  0  0  0  0  0  0
   -3.6110    2.5850   15.0550 H   0  0  0  0  0  0  0  0  0  0  0  0
   -4.8350    6.9730   12.0170 H   0  0  0  0  0  0  0  0  0  0  0  0
   -3.5850    5.8340   11.6470 H   0  0  0  0  0  0  0  0  0  0  0  0
  1 20  1  0  0  0  0
  2  4  2  0  0  0  0
  2 19  1  0  0  0  0
  2 20  1  0  0  0  0
  3 20  2  0  0  0  0
  4  7  1  0  0  0  0
  5  8  1  0  0  0  0
  5 10  2  0  0  0  0
  5 15  1  0  0  0  0
  6 20  2  0  0  0  0
  7  9  2  0  0  0  0
  9 11  1  0  0  0  0
  9 18  1  0  0  0  0
 11 12  1  0  0  0  0
 12 13  2  0  0  0  0
 12 17  1  0  0  0  0
 13 14  1  0  0  0  0
 14 15  2  0  0  0  0
 15 16  1  0  0  0  0
 16 17  2  0  0  0  0
 18 19  2  0  0  0  0
 21  4  1  0  0  0  0
 22  7  1  0  0  0  0
 23  1  1  0  0  0  0
 24 13  1  0  0  0  0
 25 14  1  0  0  0  0
 26 16  1  0  0  0  0
 27 17  1  0  0  0  0
 28 18  1  0  0  0  0
 29 19  1  0  0  0  0
 30 11  1  0  0  0  0
 31 11  1  0  0  0  0
M  CHG  3   1  -1   5   1   8  -1
M  END
>  <deltaG_kcalmol>
-11.3

>  <number_of_rotatable_bonds>
4

>  <charge>
-1

>  <lm5_entropy_jk>
23.26150331504224

$$$$
