3KXN
  ChemPy            3D                             0

 15 16  0  0  1  0  0  0  0  0999 V2000
   23.5210    6.7940   18.4700 C   0  0  0  0  0  0  0  0  0  0  0  0
   23.1840    6.3190   19.7440 C   0  0  0  0  0  0  0  0  0  0  0  0
   22.2640    6.9630   20.5060 C   0  0  0  0  0  0  0  0  0  0  0  0
   21.5790    8.1090   20.0900 C   0  0  0  0  0  0  0  0  0  0  0  0
   21.8440    8.5800   18.7820 C   0  0  0  0  0  0  0  0  0  0  0  0
   22.8190    7.9230   17.9780 C   0  0  0  0  0  0  0  0  0  0  0  0
   23.6810    5.2250   20.3660 N   0  0  0  0  0  0  0  0  0  0  0  0
   23.0210    5.2110   21.5460 C   0  0  0  0  0  0  0  0  0  0  0  0
   22.1310    6.2900   21.6770 N   0  0  0  0  0  0  0  0  0  0  0  0
   25.0110    5.7810   17.2830 I   0  0  0  0  0  0  0  0  0  0  0  0
   23.1910    8.5860   15.9770 I   0  0  0  0  0  0  0  0  0  0  0  0
   20.7330   10.2580   17.9960 I   0  0  0  0  0  0  0  0  0  0  0  0
   20.1870    9.0810   21.4070 I   0  0  0  0  0  0  0  0  0  0  0  0
   21.4790    6.4710   22.4300 H   0  0  0  0  0  0  0  0  0  0  0  0
   23.1250    4.4560   22.3270 H   0  0  0  0  0  0  0  0  0  0  0  0
  1  2  2  0  0  0  0
  1  6  1  0  0  0  0
  1 10  1  0  0  0  0
  2  3  1  0  0  0  0
  2  7  1  0  0  0  0
  3  4  2  0  0  0  0
  3  9  1  0  0  0  0
  4  5  1  0  0  0  0
  4 13  1  0  0  0  0
  5  6  2  0  0  0  0
  5 12  1  0  0  0  0
  6 11  1  0  0  0  0
  7  8  2  0  0  0  0
  8  9  1  0  0  0  0
  8 15  1  0  0  0  0
  9 14  1  0  0  0  0
M  END
>  <charge>
0

>  <Ki_NM>
23

>  <number_of_rotatable_bonds>
0

>  <lm5_entropy_jk>
7.2278

$$$$
