3S0O
 OpenBabel11252210453D

 30 31  0  0  1  0  0  0  0  0999 V2000
   65.6870  154.6100  -50.3700 N   0  0  0  0  0  0  0  0  0  0  0  0
   67.3100  153.4810  -51.7200 N   0  0  0  0  0  0  0  0  0  0  0  0
   67.9190  151.6380  -46.7520 N   0  0  0  0  0  0  0  0  0  0  0  0
   64.3220  155.5000  -48.6070 N   0  0  0  0  0  0  0  0  0  0  0  0
   66.7500  153.6730  -50.4900 C   0  0  0  0  0  0  0  0  0  0  0  0
   67.1050  152.9520  -49.3200 C   0  0  0  0  0  0  0  0  0  0  0  0
   68.2030  152.0580  -49.1680 C   0  0  0  0  0  0  0  0  0  0  0  0
   68.2720  151.1300  -47.9590 C   0  0  0  0  0  0  0  0  0  0  0  0
   67.9970  150.8410  -45.6550 C   0  0  0  0  0  0  0  0  0  0  0  0
   68.4510  149.5150  -45.7290 C   0  0  0  0  0  0  0  0  0  0  0  0
   68.8260  149.0020  -46.9730 C   0  0  0  0  0  0  0  0  0  0  0  0
   68.7330  149.8090  -48.1120 C   0  0  0  0  0  0  0  0  0  0  0  0
   65.2110  154.5700  -49.1010 C   0  0  0  0  0  0  0  0  0  0  0  0
   63.7520  155.3520  -47.2430 C   0  0  0  0  0  0  0  0  0  0  0  0
   62.7720  154.2170  -47.1010 C   0  0  0  0  0  0  0  0  0  0  0  0
   62.5580  153.6200  -45.9310 C   0  0  0  0  0  0  0  0  0  0  0  0
   69.1150  151.9680  -49.9850 O   0  0  0  0  0  0  0  0  0  0  0  0
   65.9750  153.2960  -48.0440 S   0  0  0  0  0  0  0  0  0  0  0  0
   67.0530  154.1010  -52.5170 H   0  0  0  0  0  0  0  0  0  0  0  0
   68.1610  152.9190  -51.8100 H   0  0  0  0  0  0  0  0  0  0  0  0
   67.6850  151.2780  -44.6940 H   0  0  0  0  0  0  0  0  0  0  0  0
   68.5030  148.8920  -44.8310 H   0  0  0  0  0  0  0  0  0  0  0  0
   69.1940  147.9750  -47.0410 H   0  0  0  0  0  0  0  0  0  0  0  0
   69.0200  149.4100  -49.0880 H   0  0  0  0  0  0  0  0  0  0  0  0
   63.6220  155.8880  -49.2800 H   0  0  0  0  0  0  0  0  0  0  0  0
   63.2020  156.3160  -47.0270 H   0  0  0  0  0  0  0  0  0  0  0  0
   64.5900  155.2510  -46.5060 H   0  0  0  0  0  0  0  0  0  0  0  0
   62.2350  153.9490  -48.0130 H   0  0  0  0  0  0  0  0  0  0  0  0
   63.0910  153.8950  -45.0190 H   0  0  0  0  0  0  0  0  0  0  0  0
   61.8360  152.8200  -45.8020 H   0  0  0  0  0  0  0  0  0  0  0  0
  1  5  1  0  0  0  0
  1 13  2  0  0  0  0
  2  5  1  0  0  0  0
  2 19  1  0  0  0  0
  2 20  1  0  0  0  0
  3  8  2  0  0  0  0
  3  9  1  0  0  0  0
  4 13  1  0  0  0  0
  4 14  1  0  0  0  0
  4 25  1  0  0  0  0
  5  6  2  0  0  0  0
  6 18  1  0  0  0  0
  7  6  1  0  0  0  0
  7  8  1  0  0  0  0
  7 17  2  0  0  0  0
  8 12  1  0  0  0  0
  9 10  2  0  0  0  0
  9 21  1  0  0  0  0
 10 11  1  0  0  0  0
 10 22  1  0  0  0  0
 11 12  2  0  0  0  0
 11 23  1  0  0  0  0
 12 24  1  0  0  0  0
 13 18  1  0  0  0  0
 14 15  1  0  0  0  0
 14 26  1  0  0  0  0
 14 27  1  0  0  0  0
 15 16  2  0  0  0  0
 15 28  1  0  0  0  0
 16 29  1  0  0  0  0
 16 30  1  0  0  0  0
M  END
>  <lm5_entropy_jk>
21.884956070842478

>  <number_of_rotatable_bonds>
5

>  <IC50_NM>
33000

>  <charge>
0

$$$$
