2OXY
 OpenBabel11252210453D

 15 16  0  0  1  0  0  0  0  0999 V2000
   21.3760    8.4910   20.2150 C   0  0  0  0  0  0  0  0  0  0  0  0
   21.7280    8.8450   18.8810 C   0  0  0  0  0  0  0  0  0  0  0  0
   22.6920    8.0800   18.1820 C   0  0  0  0  0  0  0  0  0  0  0  0
   21.9560    7.3550   20.8350 C   0  0  0  0  0  0  0  0  0  0  0  0
   23.4100    5.4110   20.4530 N   0  0  0  0  0  0  0  0  0  0  0  0
   22.8470    6.5840   20.0850 C   0  0  0  0  0  0  0  0  0  0  0  0
   23.2170    6.9620   18.8380 C   0  0  0  0  0  0  0  0  0  0  0  0
   24.0770    6.0340   18.3500 N   0  0  0  0  0  0  0  0  0  0  0  0
   24.1310    5.0620   19.3660 C   0  0  0  0  0  0  0  0  0  0  0  0
   20.0760    9.5150   21.1840 Br  0  0  0  0  0  0  0  0  0  0  0  0
   20.8820   10.3390   18.0040 Br  0  0  0  0  0  0  0  0  0  0  0  0
   23.2260    8.5080   16.3890 Br  0  0  0  0  0  0  0  0  0  0  0  0
   21.5360    6.8500   22.6410 Br  0  0  0  0  0  0  0  0  0  0  0  0
   24.7130    4.1460   19.2580 H   0  0  0  0  0  0  0  0  0  0  0  0
   24.5330    6.0200   17.4480 H   0  0  0  0  0  0  0  0  0  0  0  0
  1  2  2  0  0  0  0
  1  4  1  0  0  0  0
  1 10  1  0  0  0  0
  2  3  1  0  0  0  0
  2 11  1  0  0  0  0
  3  7  2  0  0  0  0
  3 12  1  0  0  0  0
  4  6  2  0  0  0  0
  4 13  1  0  0  0  0
  5  6  1  0  0  0  0
  5  9  2  0  0  0  0
  6  7  1  0  0  0  0
  7  8  1  0  0  0  0
  8  9  1  0  0  0  0
  8 15  1  0  0  0  0
  9 14  1  0  0  0  0
M  END
>  <charge>
0

>  <Ki_NM>
300

>  <number_of_rotatable_bonds>
0

>  <lm5_entropy_jk>
7.2278

$$$$
