6SY3
 OpenBabel11252210453D

 62 65  0  0  1  0  0  0  0  0999 V2000
   -0.9130   20.6120   15.6800 N   0  3  0  0  0  0  0  0  0  0  0  0
    0.0330   20.8500   16.8880 C   0  0  1  0  0  0  0  0  0  0  0  0
   -1.9410   17.4510   19.3630 O   0  0  0  0  0  0  0  0  0  0  0  0
    0.2250   19.5350   17.6450 C   0  0  0  0  0  0  0  0  0  0  0  0
    0.0760   19.5650   19.0310 N   0  0  0  0  0  0  0  0  0  0  0  0
    0.4600   18.5060   17.0330 O   0  0  0  0  0  0  0  0  0  0  0  0
    0.2620   18.3530   19.8580 C   0  0  2  0  0  0  0  0  0  0  0  0
   -0.1990   15.9870   19.3470 N   0  0  0  0  0  0  0  0  0  0  0  0
   -0.7440   17.2450   19.4940 C   0  0  0  0  0  0  0  0  0  0  0  0
   -2.3710   14.2290   14.9910 N   0  3  0  0  0  0  0  0  0  0  0  0
   -1.0180   14.7680   19.1000 C   0  0  0  0  0  0  0  0  0  0  0  0
   -1.4240   14.5790   17.6430 C   0  0  0  0  0  0  0  0  0  0  0  0
   -1.5940   15.6670   16.7880 C   0  0  0  0  0  0  0  0  0  0  0  0
   -2.0300   15.4930   15.4750 C   0  0  0  0  0  0  0  0  0  0  0  0
   -2.0170   13.1300   15.7630 C   0  0  0  0  0  0  0  0  0  0  0  0
   -1.6130   13.3060   17.1060 C   0  0  0  0  0  0  0  0  0  0  0  0
    0.0980   18.8070   21.3220 C   0  0  0  0  0  0  0  0  0  0  0  0
    0.3080   20.3380   21.3020 C   0  0  0  0  0  0  0  0  0  0  0  0
   -0.1250   20.7580   19.8870 C   0  0  0  0  0  0  0  0  0  0  0  0
    1.3970   21.4900   16.4470 C   0  0  0  0  0  0  0  0  0  0  0  0
    2.2250   21.9830   17.6480 C   0  0  0  0  0  0  0  0  0  0  0  0
    2.3640   23.3520   17.9640 C   0  0  0  0  0  0  0  0  0  0  0  0
    3.1000   23.7600   19.0910 C   0  0  0  0  0  0  0  0  0  0  0  0
    3.7040   22.8040   19.9200 C   0  0  0  0  0  0  0  0  0  0  0  0
    3.5850   21.4410   19.6120 C   0  0  0  0  0  0  0  0  0  0  0  0
    2.8620   21.0400   18.4760 C   0  0  0  0  0  0  0  0  0  0  0  0
    1.1600   22.5670   15.3770 C   0  0  0  0  0  0  0  0  0  0  0  0
    1.9120   22.5540   14.1880 C   0  0  0  0  0  0  0  0  0  0  0  0
    1.6680   23.5010   13.1780 C   0  0  0  0  0  0  0  0  0  0  0  0
    0.6690   24.4720   13.3530 C   0  0  0  0  0  0  0  0  0  0  0  0
   -0.0840   24.4990   14.5360 C   0  0  0  0  0  0  0  0  0  0  0  0
    0.1580   23.5470   15.5410 C   0  0  0  0  0  0  0  0  0  0  0  0
   -0.9470   21.4470   15.0690 H   0  0  0  0  0  0  0  0  0  0  0  0
   -1.8830   20.3960   15.9720 H   0  0  0  0  0  0  0  0  0  0  0  0
   -0.5800   19.8130   15.1070 H   0  0  0  0  0  0  0  0  0  0  0  0
   -0.4590   21.5210   17.5970 H   0  0  0  0  0  0  0  0  0  0  0  0
    1.2700   17.9580   19.6680 H   0  0  0  0  0  0  0  0  0  0  0  0
    0.7670   15.8800   19.6440 H   0  0  0  0  0  0  0  0  0  0  0  0
   -0.4760   13.8880   19.4700 H   0  0  0  0  0  0  0  0  0  0  0  0
   -1.9290   14.8310   19.7120 H   0  0  0  0  0  0  0  0  0  0  0  0
    0.8080   18.2740   21.9660 H   0  0  0  0  0  0  0  0  0  0  0  0
   -0.9260   18.5550   21.6440 H   0  0  0  0  0  0  0  0  0  0  0  0
   -0.2520   20.8880   22.0760 H   0  0  0  0  0  0  0  0  0  0  0  0
    1.3740   20.5860   21.4430 H   0  0  0  0  0  0  0  0  0  0  0  0
   -1.1910   21.0430   19.8830 H   0  0  0  0  0  0  0  0  0  0  0  0
    0.4710   21.6210   19.5470 H   0  0  0  0  0  0  0  0  0  0  0  0
    1.9930   20.6920   15.9750 H   0  0  0  0  0  0  0  0  0  0  0  0
    1.9090   24.1170   17.3380 H   0  0  0  0  0  0  0  0  0  0  0  0
    3.1980   24.8220   19.3230 H   0  0  0  0  0  0  0  0  0  0  0  0
    4.2680   23.1200   20.8000 H   0  0  0  0  0  0  0  0  0  0  0  0
    4.0480   20.6950   20.2570 H   0  0  0  0  0  0  0  0  0  0  0  0
    2.7770   19.9780   18.2530 H   0  0  0  0  0  0  0  0  0  0  0  0
    2.6930   21.8070   14.0400 H   0  0  0  0  0  0  0  0  0  0  0  0
    2.2570   23.4840   12.2590 H   0  0  0  0  0  0  0  0  0  0  0  0
    0.4810   25.2100   12.5700 H   0  0  0  0  0  0  0  0  0  0  0  0
   -0.8500   25.2640   14.6790 H   0  0  0  0  0  0  0  0  0  0  0  0
   -0.4180   23.5960   16.4650 H   0  0  0  0  0  0  0  0  0  0  0  0
   -2.1500   12.1440   15.3060 H   0  0  0  0  0  0  0  0  0  0  0  0
   -1.4030   12.4390   17.7220 H   0  0  0  0  0  0  0  0  0  0  0  0
   -1.3840   16.6740   17.1260 H   0  0  0  0  0  0  0  0  0  0  0  0
   -2.1100   16.3560   14.8220 H   0  0  0  0  0  0  0  0  0  0  0  0
   -2.9250   14.1010   14.1450 H   0  0  0  0  0  0  0  0  0  0  0  0
  1  2  1  0  0  0  0
  1 33  1  0  0  0  0
  1 34  1  0  0  0  0
  1 35  1  0  0  0  0
  2  4  1  0  0  0  0
  2 20  1  0  0  0  0
  2 36  1  1  0  0  0
  3  9  2  0  0  0  0
  4  5  1  0  0  0  0
  4  6  2  0  0  0  0
  5  7  1  0  0  0  0
  5 19  1  0  0  0  0
  7  9  1  0  0  0  0
  7 17  1  0  0  0  0
  7 37  1  6  0  0  0
  8  9  1  0  0  0  0
  8 11  1  0  0  0  0
  8 38  1  0  0  0  0
 10 14  2  0  0  0  0
 10 15  1  0  0  0  0
 10 62  1  0  0  0  0
 11 12  1  0  0  0  0
 11 39  1  0  0  0  0
 11 40  1  0  0  0  0
 12 13  2  0  0  0  0
 12 16  1  0  0  0  0
 13 14  1  0  0  0  0
 13 60  1  0  0  0  0
 14 61  1  0  0  0  0
 15 16  2  0  0  0  0
 15 58  1  0  0  0  0
 16 59  1  0  0  0  0
 17 18  1  0  0  0  0
 17 41  1  0  0  0  0
 17 42  1  0  0  0  0
 18 19  1  0  0  0  0
 18 43  1  0  0  0  0
 18 44  1  0  0  0  0
 19 45  1  0  0  0  0
 19 46  1  0  0  0  0
 20 21  1  0  0  0  0
 20 27  1  0  0  0  0
 20 47  1  0  0  0  0
 21 22  2  0  0  0  0
 21 26  1  0  0  0  0
 22 23  1  0  0  0  0
 22 48  1  0  0  0  0
 23 24  2  0  0  0  0
 23 49  1  0  0  0  0
 24 25  1  0  0  0  0
 24 50  1  0  0  0  0
 25 26  2  0  0  0  0
 25 51  1  0  0  0  0
 26 52  1  0  0  0  0
 27 28  2  0  0  0  0
 27 32  1  0  0  0  0
 28 29  1  0  0  0  0
 28 53  1  0  0  0  0
 29 30  2  0  0  0  0
 29 54  1  0  0  0  0
 30 31  1  0  0  0  0
 30 55  1  0  0  0  0
 31 32  2  0  0  0  0
 31 56  1  0  0  0  0
 32 57  1  0  0  0  0
M  CHG  2   1   1  10   1
M  END
>  <number_of_rotatable_bonds>
9

>  <lm5_entropy_jk>
25.430252392296193

>  <protonation_change>
deprotonated_in_solution

>  <protonation_site>
62

>  <protonation_pKa>
5.0

>  <protonation_pKa_method>
experiment

>  <experiment_pH>
7.8

>  <protonated_energy_kcalmol>
155.549498

>  <deprotonated_energy_kcalmol>
62.445419

>  <deltaG_kcalmol>
-4.26

>  <charge>
2

$$$$
