4E5W
 OpenBabel11252210453D

 57 61  0  0  1  0  0  0  0  0999 V2000
  -15.9340   37.7650   -3.1760 C   0  0  0  0  0  0  0  0  0  0  0  0
  -15.3380   36.3930   -3.4710 C   0  0  0  0  0  0  0  0  0  0  0  0
  -16.5410   35.4930   -3.7590 C   0  0  0  0  0  0  0  0  0  0  0  0
  -14.4790   35.9110   -2.3100 N   0  3  2  0  0  0  0  0  0  0  0  0
  -13.1300   36.6340   -2.2730 C   0  0  0  0  0  0  0  0  0  0  0  0
  -12.0340   35.6490   -1.7960 C   0  0  0  0  0  0  0  0  0  0  0  0
  -12.6590   34.2290   -1.8790 C   0  0  0  0  0  0  0  0  0  0  0  0
  -14.1230   34.4310   -2.3920 C   0  0  1  0  0  0  0  0  0  0  0  0
  -15.1450   33.6030   -1.6290 C   0  0  0  0  0  0  0  0  0  0  0  0
  -15.7400   34.0770   -0.6790 O   0  0  0  0  0  0  0  0  0  0  0  0
  -15.4390   32.3480   -2.1630 N   0  0  0  0  0  0  0  0  0  0  0  0
  -16.5240   31.5460   -1.5830 C   0  0  0  0  0  0  0  0  0  0  0  0
  -15.8930   30.5590   -0.5630 C   0  0  0  0  0  0  0  0  0  0  0  0
  -14.8560   29.6480   -1.2430 C   0  0  1  0  0  0  0  0  0  0  0  0
  -13.7990   30.5280   -1.9520 C   0  0  0  0  0  0  0  0  0  0  0  0
  -14.4910   31.5090   -2.9340 C   0  0  0  0  0  0  0  0  0  0  0  0
  -14.2860   28.6980   -0.2880 N   0  0  0  0  0  0  0  0  0  0  0  0
  -13.0190   28.6990    0.3300 C   0  0  0  0  0  0  0  0  0  0  0  0
  -12.7130   27.5270    0.9330 N   0  0  0  0  0  0  0  0  0  0  0  0
  -13.8050   26.7710    0.6730 C   0  0  0  0  0  0  0  0  0  0  0  0
  -14.7530   27.4480   -0.0180 C   0  0  0  0  0  0  0  0  0  0  0  0
  -15.9290   26.8030   -0.4150 C   0  0  0  0  0  0  0  0  0  0  0  0
  -17.0860   27.2290   -1.1720 C   0  0  0  0  0  0  0  0  0  0  0  0
  -17.8860   26.1060   -1.3250 C   0  0  0  0  0  0  0  0  0  0  0  0
  -17.2450   25.0360   -0.6680 N   0  0  0  0  0  0  0  0  0  0  0  0
  -16.0680   25.4700   -0.1090 C   0  0  0  0  0  0  0  0  0  0  0  0
  -15.1430   24.7610    0.5820 N   0  0  0  0  0  0  0  0  0  0  0  0
  -14.0120   25.4120    0.9810 C   0  0  0  0  0  0  0  0  0  0  0  0
  -14.2960   34.1000   -3.4180 H   0  0  0  0  0  0  0  0  0  0  0  0
  -17.5980   24.0850   -0.5930 H   0  0  0  0  0  0  0  0  0  0  0  0
  -14.6990   36.4490   -4.3670 H   0  0  0  0  0  0  0  0  0  0  0  0
  -14.9980   36.0650   -1.4180 H   0  0  0  0  0  0  0  0  0  0  0  0
  -12.9100   37.0550   -3.2630 H   0  0  0  0  0  0  0  0  0  0  0  0
  -13.2150   37.4960   -1.5910 H   0  0  0  0  0  0  0  0  0  0  0  0
  -11.7590   35.8900   -0.7520 H   0  0  0  0  0  0  0  0  0  0  0  0
  -11.0860   35.7620   -2.3560 H   0  0  0  0  0  0  0  0  0  0  0  0
  -12.0590   33.5180   -2.4770 H   0  0  0  0  0  0  0  0  0  0  0  0
  -12.6840   33.7910   -0.8660 H   0  0  0  0  0  0  0  0  0  0  0  0
  -17.2510   32.2250   -1.1080 H   0  0  0  0  0  0  0  0  0  0  0  0
  -17.0760   31.0160   -2.3770 H   0  0  0  0  0  0  0  0  0  0  0  0
  -15.4030   31.1290    0.2370 H   0  0  0  0  0  0  0  0  0  0  0  0
  -16.6540   29.9330   -0.0820 H   0  0  0  0  0  0  0  0  0  0  0  0
  -15.3640   29.0550   -2.0230 H   0  0  0  0  0  0  0  0  0  0  0  0
  -13.2460   31.1120   -1.2070 H   0  0  0  0  0  0  0  0  0  0  0  0
  -13.0720   29.8920   -2.4810 H   0  0  0  0  0  0  0  0  0  0  0  0
  -15.0430   30.9490   -3.7060 H   0  0  0  0  0  0  0  0  0  0  0  0
  -13.7520   32.1170   -3.4700 H   0  0  0  0  0  0  0  0  0  0  0  0
  -12.3610   29.5550    0.2550 H   0  0  0  0  0  0  0  0  0  0  0  0
  -17.3230   28.2020   -1.5870 H   0  0  0  0  0  0  0  0  0  0  0  0
  -18.8340   25.9890   -1.8440 H   0  0  0  0  0  0  0  0  0  0  0  0
  -13.2580   24.8320    1.5140 H   0  0  0  0  0  0  0  0  0  0  0  0
  -16.2530   34.5190   -4.1740 H   0  0  0  0  0  0  0  0  0  0  0  0
  -17.1400   35.3070   -2.8560 H   0  0  0  0  0  0  0  0  0  0  0  0
  -17.2130   35.9440   -4.5040 H   0  0  0  0  0  0  0  0  0  0  0  0
  -15.1660   38.4970   -2.8910 H   0  0  0  0  0  0  0  0  0  0  0  0
  -16.4540   38.1770   -4.0550 H   0  0  0  0  0  0  0  0  0  0  0  0
  -16.6670   37.7200   -2.3610 H   0  0  0  0  0  0  0  0  0  0  0  0
  1  2  1  0  0  0  0
  2  3  1  0  0  0  0
  2  4  1  0  0  0  0
  4  8  1  0  0  0  0
  4 32  1  1  0  0  0
  5  6  1  0  0  0  0
  5  4  1  0  0  0  0
  6  7  1  0  0  0  0
  7  8  1  0  0  0  0
  8 29  1  6  0  0  0
  9  8  1  0  0  0  0
  9 11  1  0  0  0  0
  9 10  2  0  0  0  0
 12 13  1  0  0  0  0
 12 11  1  0  0  0  0
 13 14  1  0  0  0  0
 14 15  1  0  0  0  0
 14 17  1  0  0  0  0
 14 43  1  6  0  0  0
 15 16  1  0  0  0  0
 16 11  1  0  0  0  0
 18 17  1  0  0  0  0
 18 19  2  0  0  0  0
 20 21  2  0  0  0  0
 20 28  1  0  0  0  0
 20 19  1  0  0  0  0
 21 22  1  0  0  0  0
 21 17  1  0  0  0  0
 22 23  1  0  0  0  0
 22 26  2  0  0  0  0
 23 24  2  0  0  0  0
 24 25  1  0  0  0  0
 26 25  1  0  0  0  0
 26 27  1  0  0  0  0
 28 27  2  0  0  0  0
 30 25  1  0  0  0  0
 31  2  1  0  0  0  0
 33  5  1  0  0  0  0
 34  5  1  0  0  0  0
 35  6  1  0  0  0  0
 36  6  1  0  0  0  0
 37  7  1  0  0  0  0
 38  7  1  0  0  0  0
 39 12  1  0  0  0  0
 40 12  1  0  0  0  0
 41 13  1  0  0  0  0
 42 13  1  0  0  0  0
 44 15  1  0  0  0  0
 45 15  1  0  0  0  0
 46 16  1  0  0  0  0
 47 16  1  0  0  0  0
 48 18  1  0  0  0  0
 49 23  1  0  0  0  0
 50 24  1  0  0  0  0
 51 28  1  0  0  0  0
 52  3  1  0  0  0  0
 53  3  1  0  0  0  0
 54  3  1  0  0  0  0
 55  1  1  0  0  0  0
 56  1  1  0  0  0  0
 57  1  1  0  0  0  0
M  CHG  1   4   1
M  END
>  <charge>
1

>  <pKi>
7.66

>  <number_of_rotatable_bonds>
3

>  <lm5_entropy_jk>
35.45414597483307

$$$$
