5NXI
 OpenBabel11252210453D

 31 32  0  0  0  0  0  0  0  0999 V2000
   -3.8380    6.7580   13.2410 N   0  0  0  0  0  0  0  0  0  0  0  0
   -5.6640    1.2780   16.0420 N   0  5  0  0  0  0  0  0  0  0  0  0
   -3.0720    8.2670   11.2260 C   0  0  0  0  0  0  0  0  0  0  0  0
   -1.6650    8.3350   11.1420 C   0  0  0  0  0  0  0  0  0  0  0  0
   -1.0660    9.5590   10.8090 C   0  0  0  0  0  0  0  0  0  0  0  0
   -1.8470   10.6960   10.5620 C   0  0  0  0  0  0  0  0  0  0  0  0
   -3.2420   10.6120   10.6400 C   0  0  0  0  0  0  0  0  0  0  0  0
   -3.8710    9.4030   10.9710 C   0  0  0  0  0  0  0  0  0  0  0  0
   -5.5910    5.8300   14.4920 C   0  0  0  0  0  0  0  0  0  0  0  0
   -6.0780    4.8320   15.3410 C   0  0  0  0  0  0  0  0  0  0  0  0
   -5.2720    3.7170   15.6080 C   0  0  0  0  0  0  0  0  0  0  0  0
   -3.9770    3.6250   15.0870 C   0  0  0  0  0  0  0  0  0  0  0  0
   -3.5230    4.6500   14.2470 C   0  0  0  0  0  0  0  0  0  0  0  0
   -4.3260    5.7320   13.9410 C   0  0  0  0  0  0  0  0  0  0  0  0
   -3.0110    5.5830   11.2620 O   0  0  0  0  0  0  0  0  0  0  0  0
   -5.2890    6.8290   11.3960 O   0  0  0  0  0  0  0  0  0  0  0  0
   -4.8130    2.6800   17.8410 O   0  0  0  0  0  0  0  0  0  0  0  0
   -7.1820    2.9420   17.1020 O   0  0  0  0  0  0  0  0  0  0  0  0
   -1.0110   12.3580   10.1190 Br  0  0  0  0  0  0  0  0  0  0  0  0
   -3.8490    6.7250   11.6450 S   0  0  0  0  0  0  0  0  0  0  0  0
   -5.8140    2.6000   16.8190 S   0  0  0  0  0  0  0  0  0  0  0  0
   -4.5380    7.4570   13.0720 H   0  0  0  0  0  0  0  0  0  0  0  0
   -4.8450    1.1890   16.7000 H   0  0  0  0  0  0  0  0  0  0  0  0
   -1.0240    7.4650   11.3300 H   0  0  0  0  0  0  0  0  0  0  0  0
    0.0210    9.6270   10.7420 H   0  0  0  0  0  0  0  0  0  0  0  0
   -3.8480   11.4980   10.4410 H   0  0  0  0  0  0  0  0  0  0  0  0
   -4.9670    9.3730   11.0140 H   0  0  0  0  0  0  0  0  0  0  0  0
   -6.2010    6.7100   14.3150 H   0  0  0  0  0  0  0  0  0  0  0  0
   -7.0500    4.9650   15.8240 H   0  0  0  0  0  0  0  0  0  0  0  0
   -3.3120    2.7990   15.3500 H   0  0  0  0  0  0  0  0  0  0  0  0
   -2.5100    4.6150   13.8580 H   0  0  0  0  0  0  0  0  0  0  0  0
  1 20  1  0  0  0  0
  2 21  1  0  0  0  0
  3  4  2  0  0  0  0
  3  8  1  0  0  0  0
  3 20  1  0  0  0  0
  4  5  1  0  0  0  0
  5  6  2  0  0  0  0
  6  7  1  0  0  0  0
  6 19  1  0  0  0  0
  7  8  2  0  0  0  0
  9 10  2  0  0  0  0
  9 14  1  0  0  0  0
 10 11  1  0  0  0  0
 11 12  2  0  0  0  0
 11 21  1  0  0  0  0
 12 13  1  0  0  0  0
 13 14  2  0  0  0  0
 14  1  1  0  0  0  0
 15 20  2  0  0  0  0
 16 20  2  0  0  0  0
 17 21  2  0  0  0  0
 18 21  2  0  0  0  0
 22  1  1  0  0  0  0
 23  2  1  0  0  0  0
 24  4  1  0  0  0  0
 25  5  1  0  0  0  0
 26  7  1  0  0  0  0
 27  8  1  0  0  0  0
 28  9  1  0  0  0  0
 29 10  1  0  0  0  0
 30 12  1  0  0  0  0
 31 13  1  0  0  0  0
M  CHG  1   2  -1
M  END
>  <deltaG_kcalmol>
-9.1

>  <number_of_rotatable_bonds>
4

>  <charge>
-1

>  <lm5_entropy_jk>
23.26150331504224

$$$$
