5NY1
 OpenBabel11252210453D

 45 47  0  0  0  0  0  0  0  0999 V2000
    4.5980    9.3080   10.5920 C   0  0  0  0  0  0  0  0  0  0  0  0
    3.2980    9.4630   11.3500 C   0  0  0  0  0  0  0  0  0  0  0  0
    3.1590   10.5560   12.2310 C   0  0  0  0  0  0  0  0  0  0  0  0
    1.9690   10.7600   12.9580 C   0  0  0  0  0  0  0  0  0  0  0  0
    0.9370    9.8350   12.7760 C   0  0  0  0  0  0  0  0  0  0  0  0
   -0.3720    9.7740   13.3710 C   0  0  0  0  0  0  0  0  0  0  0  0
   -0.9220    8.6380   12.7930 C   0  0  0  0  0  0  0  0  0  0  0  0
   -0.0670    7.9910   11.9070 O   0  0  0  0  0  0  0  0  0  0  0  0
    1.0680    8.7640   11.9220 C   0  0  0  0  0  0  0  0  0  0  0  0
    2.2410    8.5340   11.1810 C   0  0  0  0  0  0  0  0  0  0  0  0
    2.3580    7.3350   10.2240 C   0  0  0  0  0  0  0  0  0  0  0  0
   -2.3020    8.1410   13.0230 C   0  0  0  0  0  0  0  0  0  0  0  0
   -3.1340    8.6730   13.7340 O   0  0  0  0  0  0  0  0  0  0  0  0
   -2.5820    7.0060   12.2940 N   0  0  0  0  0  0  0  0  0  0  0  0
   -3.9470    6.4080   12.1410 C   0  0  0  0  0  0  0  0  0  0  0  0
   -4.3590    5.4730   13.2700 C   0  0  0  0  0  0  0  0  0  0  0  0
   -5.5050    5.7430   14.0300 C   0  0  0  0  0  0  0  0  0  0  0  0
   -5.9150    4.8720   15.0490 C   0  0  0  0  0  0  0  0  0  0  0  0
   -5.1730    3.7020   15.3040 C   0  0  0  0  0  0  0  0  0  0  0  0
   -4.0010    3.4390   14.5690 C   0  0  0  0  0  0  0  0  0  0  0  0
   -3.6160    4.3180   13.5440 C   0  0  0  0  0  0  0  0  0  0  0  0
   -5.6380    2.6850   16.6700 S   0  0  0  0  0  0  0  0  0  0  0  0
   -4.5320    2.7760   17.5820 O   0  0  0  0  0  0  0  0  0  0  0  0
   -6.9460    3.1240   17.0900 O   0  0  0  0  0  0  0  0  0  0  0  0
   -5.6320    1.2940   15.9930 N   0  5  0  0  0  0  0  0  0  0  0  0
   -1.0240   10.6910   14.3590 C   0  0  0  0  0  0  0  0  0  0  0  0
    3.9820   11.2590   12.3500 H   0  0  0  0  0  0  0  0  0  0  0  0
    1.8580   11.6100   13.6340 H   0  0  0  0  0  0  0  0  0  0  0  0
    5.2340   10.1990   10.6690 H   0  0  0  0  0  0  0  0  0  0  0  0
    4.4160    9.1370    9.5230 H   0  0  0  0  0  0  0  0  0  0  0  0
    5.1770    8.4570   10.9720 H   0  0  0  0  0  0  0  0  0  0  0  0
   -1.7970    6.6730   11.7420 H   0  0  0  0  0  0  0  0  0  0  0  0
   -6.0740    6.6500   13.8460 H   0  0  0  0  0  0  0  0  0  0  0  0
   -6.7890    5.1300   15.6550 H   0  0  0  0  0  0  0  0  0  0  0  0
   -3.3810    2.5700   14.7920 H   0  0  0  0  0  0  0  0  0  0  0  0
   -2.7160    4.1110   12.9690 H   0  0  0  0  0  0  0  0  0  0  0  0
    1.5680    6.5920   10.3950 H   0  0  0  0  0  0  0  0  0  0  0  0
    3.3170    6.8150   10.3380 H   0  0  0  0  0  0  0  0  0  0  0  0
    2.2790    7.6530    9.1750 H   0  0  0  0  0  0  0  0  0  0  0  0
   -4.0110    5.8510   11.1950 H   0  0  0  0  0  0  0  0  0  0  0  0
   -4.6870    7.2200   12.0680 H   0  0  0  0  0  0  0  0  0  0  0  0
   -4.7820    1.1950   16.6120 H   0  0  0  0  0  0  0  0  0  0  0  0
   -0.3180   11.4280   14.7570 H   0  0  0  0  0  0  0  0  0  0  0  0
   -1.8490   11.2420   13.8910 H   0  0  0  0  0  0  0  0  0  0  0  0
   -1.4430   10.1330   15.2040 H   0  0  0  0  0  0  0  0  0  0  0  0
  1  2  1  0  0  0  0
  2  3  2  0  0  0  0
  2 10  1  0  0  0  0
  3  4  1  0  0  0  0
  4  5  2  0  0  0  0
  5  6  1  0  0  0  0
  5  9  1  0  0  0  0
  6  7  2  0  0  0  0
  6 26  1  0  0  0  0
  7  8  1  0  0  0  0
  7 12  1  0  0  0  0
  8  9  1  0  0  0  0
  9 10  2  0  0  0  0
 10 11  1  0  0  0  0
 12 13  2  0  0  0  0
 12 14  1  0  0  0  0
 14 15  1  0  0  0  0
 15 16  1  0  0  0  0
 16 17  2  0  0  0  0
 16 21  1  0  0  0  0
 17 18  1  0  0  0  0
 18 19  2  0  0  0  0
 19 20  1  0  0  0  0
 19 22  1  0  0  0  0
 20 21  2  0  0  0  0
 22 23  2  0  0  0  0
 22 24  2  0  0  0  0
 22 25  1  0  0  0  0
 27  3  1  0  0  0  0
 28  4  1  0  0  0  0
 29  1  1  0  0  0  0
 30  1  1  0  0  0  0
 31  1  1  0  0  0  0
 32 14  1  0  0  0  0
 33 17  1  0  0  0  0
 34 18  1  0  0  0  0
 35 20  1  0  0  0  0
 36 21  1  0  0  0  0
 37 11  1  0  0  0  0
 38 11  1  0  0  0  0
 39 11  1  0  0  0  0
 40 15  1  0  0  0  0
 41 15  1  0  0  0  0
 42 25  1  0  0  0  0
 43 26  1  0  0  0  0
 44 26  1  0  0  0  0
 45 26  1  0  0  0  0
M  CHG  1  25  -1
M  END
>  <deltaG_kcalmol>
-8.8

>  <number_of_rotatable_bonds>
5

>  <charge>
-1

>  <lm5_entropy_jk>
40.81376020622596

$$$$
