3EKX-chB_H.pdb
 OpenBabel11252210453D

 86 89  0  0  1  0  0  0  0  0999 V2000
    2.8540   -4.4990   17.0000 C   0  0  2  0  0  0  0  0  0  0  0  0
    3.7450   -5.4370   17.8390 C   0  0  1  0  0  0  0  0  0  0  0  0
    3.1080   -6.8350   17.8990 C   0  0  0  0  0  0  0  0  0  0  0  0
    2.8130   -7.4100   16.5070 C   0  0  0  0  0  0  0  0  0  0  0  0
    2.0110   -6.4410   15.6240 C   0  0  0  0  0  0  0  0  0  0  0  0
    2.6550   -5.0460   15.5740 C   0  0  0  0  0  0  0  0  0  0  0  0
    4.8720   -3.0520   16.4470 N   0  3  1  0  0  0  0  0  0  0  0  0
    5.7900   -4.0910   17.1090 C   0  0  1  0  0  0  0  0  0  0  0  0
    5.1660   -5.4860   17.2490 C   0  0  0  0  0  0  0  0  0  0  0  0
    3.4620   -3.0870   17.0400 C   0  0  0  0  0  0  0  0  0  0  0  0
    7.0850   -4.2480   16.2520 C   0  0  0  0  0  0  0  0  0  0  0  0
    8.1640   -4.7160   16.9570 N   0  0  0  0  0  0  0  0  0  0  0  0
    9.4830   -5.1480   16.3170 C   0  0  0  0  0  0  0  0  0  0  0  0
   10.0040   -4.0000   15.4470 C   0  0  0  0  0  0  0  0  0  0  0  0
    9.1990   -6.4140   15.4940 C   0  0  0  0  0  0  0  0  0  0  0  0
   10.4340   -5.4470   17.4870 C   0  0  0  0  0  0  0  0  0  0  0  0
    7.0620   -3.9550   15.0630 O   0  0  0  0  0  0  0  0  0  0  0  0
    5.4840   -1.6770   16.6640 C   0  0  0  0  0  0  0  0  0  0  0  0
    4.8570   -0.5300   15.8290 C   0  0  2  0  0  0  0  0  0  0  0  0
    5.3410   -0.4180   14.3430 C   0  0  1  0  0  0  0  0  0  0  0  0
    5.1150    0.6900   16.5100 O   0  0  0  0  0  0  0  0  0  0  0  0
    4.6250    0.7440   13.7770 N   0  0  0  0  0  0  0  0  0  0  0  0
    6.8640   -0.2800   14.2430 C   0  0  0  0  0  0  0  0  0  0  0  0
    3.7670    0.6270   12.6700 C   0  0  0  0  0  0  0  0  0  0  0  0
    3.6400   -0.4400   12.0930 O   0  0  0  0  0  0  0  0  0  0  0  0
    3.0650    1.8860   12.2520 C   0  0  0  0  0  0  0  0  0  0  0  0
    3.8590    2.9380   11.7780 C   0  0  0  0  0  0  0  0  0  0  0  0
    3.2750    4.0460   11.1620 C   0  0  0  0  0  0  0  0  0  0  0  0
    1.8880    4.1320   11.0640 C   0  0  0  0  0  0  0  0  0  0  0  0
    1.1000    3.1290   11.6510 C   0  0  0  0  0  0  0  0  0  0  0  0
    1.6610    1.9700   12.2380 C   0  0  0  0  0  0  0  0  0  0  0  0
   -0.2500    3.3440   11.5100 O   0  0  0  0  0  0  0  0  0  0  0  0
    0.7860    0.8900   12.7790 C   0  0  0  0  0  0  0  0  0  0  0  0
    7.4240   -0.5370   12.5400 S   0  0  0  0  0  0  0  0  0  0  0  0
    7.4620    1.0310   11.7380 C   0  0  0  0  0  0  0  0  0  0  0  0
    7.6330    0.9630   10.3480 C   0  0  0  0  0  0  0  0  0  0  0  0
    7.6600    2.1480    9.6080 C   0  0  0  0  0  0  0  0  0  0  0  0
    7.5420    3.3860   10.2520 C   0  0  0  0  0  0  0  0  0  0  0  0
    7.3970    3.4380   11.6390 C   0  0  0  0  0  0  0  0  0  0  0  0
    7.3550    2.2560   12.3920 C   0  0  0  0  0  0  0  0  0  0  0  0
    1.8560   -4.4380   17.5090 H   0  0  0  0  0  0  0  0  0  0  0  0
    3.8160   -5.0390   18.8850 H   0  0  0  0  0  0  0  0  0  0  0  0
    2.1630   -6.7630   18.4830 H   0  0  0  0  0  0  0  0  0  0  0  0
    3.8090   -7.5170   18.4350 H   0  0  0  0  0  0  0  0  0  0  0  0
    2.2490   -8.3630   16.6400 H   0  0  0  0  0  0  0  0  0  0  0  0
    3.7930   -7.6520   16.0380 H   0  0  0  0  0  0  0  0  0  0  0  0
    0.9780   -6.3540   16.0300 H   0  0  0  0  0  0  0  0  0  0  0  0
    1.9580   -6.8470   14.5900 H   0  0  0  0  0  0  0  0  0  0  0  0
    3.6440   -5.1410   15.0770 H   0  0  0  0  0  0  0  0  0  0  0  0
    2.0240   -4.3420   14.9880 H   0  0  0  0  0  0  0  0  0  0  0  0
    6.0130   -3.7120   18.1420 H   0  0  0  0  0  0  0  0  0  0  0  0
    5.1550   -6.0180   16.2700 H   0  0  0  0  0  0  0  0  0  0  0  0
    5.7970   -6.0930   17.9520 H   0  0  0  0  0  0  0  0  0  0  0  0
    3.5180   -2.7530   18.1160 H   0  0  0  0  0  0  0  0  0  0  0  0
    2.8060   -2.3710   16.4760 H   0  0  0  0  0  0  0  0  0  0  0  0
    8.0020   -5.0870   17.8960 H   0  0  0  0  0  0  0  0  0  0  0  0
   10.8950   -4.3310   14.8760 H   0  0  0  0  0  0  0  0  0  0  0  0
    9.2200   -3.6720   14.7220 H   0  0  0  0  0  0  0  0  0  0  0  0
   10.2770   -3.1310   16.0850 H   0  0  0  0  0  0  0  0  0  0  0  0
    8.3580   -6.2320   14.7910 H   0  0  0  0  0  0  0  0  0  0  0  0
   10.1000   -6.6970   14.9140 H   0  0  0  0  0  0  0  0  0  0  0  0
    8.9150   -7.2570   16.1660 H   0  0  0  0  0  0  0  0  0  0  0  0
   11.3990   -5.8370   17.0910 H   0  0  0  0  0  0  0  0  0  0  0  0
   10.6560   -4.5210   18.0650 H   0  0  0  0  0  0  0  0  0  0  0  0
   10.0140   -6.2240   18.1650 H   0  0  0  0  0  0  0  0  0  0  0  0
    6.5940   -1.7140   16.4770 H   0  0  0  0  0  0  0  0  0  0  0  0
    5.3680   -1.3890   17.7510 H   0  0  0  0  0  0  0  0  0  0  0  0
    3.7400   -0.5840   15.8560 H   0  0  0  0  0  0  0  0  0  0  0  0
    4.9950   -1.3480   13.8200 H   0  0  0  0  0  0  0  0  0  0  0  0
    6.1270    0.7350   16.7780 H   0  0  0  0  0  0  0  0  0  0  0  0
    4.8450    1.6550   14.2200 H   0  0  0  0  0  0  0  0  0  0  0  0
    7.3800   -1.0800   14.8330 H   0  0  0  0  0  0  0  0  0  0  0  0
    7.2020    0.6900   14.6860 H   0  0  0  0  0  0  0  0  0  0  0  0
    4.9460    2.8970   11.8900 H   0  0  0  0  0  0  0  0  0  0  0  0
    3.9120    4.8380   10.7530 H   0  0  0  0  0  0  0  0  0  0  0  0
    1.4190    4.9540   10.5160 H   0  0  0  0  0  0  0  0  0  0  0  0
   -0.7980    3.0400   12.3030 H   0  0  0  0  0  0  0  0  0  0  0  0
    0.5000    0.1900   11.9520 H   0  0  0  0  0  0  0  0  0  0  0  0
    1.3050    0.2990   13.5700 H   0  0  0  0  0  0  0  0  0  0  0  0
   -0.1540    1.2960   13.2240 H   0  0  0  0  0  0  0  0  0  0  0  0
    7.7460    0.0050    9.8350 H   0  0  0  0  0  0  0  0  0  0  0  0
    7.7680    2.1120    8.5190 H   0  0  0  0  0  0  0  0  0  0  0  0
    7.5600    4.3140    9.6730 H   0  0  0  0  0  0  0  0  0  0  0  0
    7.3050    4.3990   12.1540 H   0  0  0  0  0  0  0  0  0  0  0  0
    7.2300    2.3340   13.4730 H   0  0  0  0  0  0  0  0  0  0  0  0
    4.8050   -3.2660   15.4120 H   0  0  0  0  0  0  0  0  0  0  0  0
  1  2  1  0  0  0  0
  1  6  1  0  0  0  0
  1 10  1  0  0  0  0
  1 41  1  1  0  0  0
  2  3  1  0  0  0  0
  2  9  1  0  0  0  0
  2 42  1  1  0  0  0
  3  4  1  0  0  0  0
  3 43  1  0  0  0  0
  3 44  1  0  0  0  0
  4  5  1  0  0  0  0
  4 45  1  0  0  0  0
  4 46  1  0  0  0  0
  5  6  1  0  0  0  0
  5 47  1  0  0  0  0
  5 48  1  0  0  0  0
  6 49  1  0  0  0  0
  6 50  1  0  0  0  0
  7  8  1  0  0  0  0
  7 10  1  0  0  0  0
  7 18  1  0  0  0  0
  7 86  1  6  0  0  0
  8  9  1  0  0  0  0
  8 11  1  0  0  0  0
  8 51  1  1  0  0  0
  9 52  1  0  0  0  0
  9 53  1  0  0  0  0
 10 54  1  0  0  0  0
 10 55  1  0  0  0  0
 11 12  1  0  0  0  0
 11 17  2  0  0  0  0
 12 13  1  0  0  0  0
 12 56  1  0  0  0  0
 13 14  1  0  0  0  0
 13 15  1  0  0  0  0
 13 16  1  0  0  0  0
 14 57  1  0  0  0  0
 14 58  1  0  0  0  0
 14 59  1  0  0  0  0
 15 60  1  0  0  0  0
 15 61  1  0  0  0  0
 15 62  1  0  0  0  0
 16 63  1  0  0  0  0
 16 64  1  0  0  0  0
 16 65  1  0  0  0  0
 18 19  1  0  0  0  0
 18 66  1  0  0  0  0
 18 67  1  0  0  0  0
 19 20  1  0  0  0  0
 19 21  1  0  0  0  0
 19 68  1  6  0  0  0
 20 22  1  0  0  0  0
 20 23  1  0  0  0  0
 20 69  1  6  0  0  0
 21 70  1  0  0  0  0
 22 24  1  0  0  0  0
 22 71  1  0  0  0  0
 23 34  1  0  0  0  0
 23 72  1  0  0  0  0
 23 73  1  0  0  0  0
 24 25  2  0  0  0  0
 24 26  1  0  0  0  0
 26 27  2  0  0  0  0
 26 31  1  0  0  0  0
 27 28  1  0  0  0  0
 27 74  1  0  0  0  0
 28 29  2  0  0  0  0
 28 75  1  0  0  0  0
 29 30  1  0  0  0  0
 29 76  1  0  0  0  0
 30 31  2  0  0  0  0
 30 32  1  0  0  0  0
 31 33  1  0  0  0  0
 32 77  1  0  0  0  0
 33 78  1  0  0  0  0
 33 79  1  0  0  0  0
 33 80  1  0  0  0  0
 34 35  1  0  0  0  0
 35 36  2  0  0  0  0
 35 40  1  0  0  0  0
 36 37  1  0  0  0  0
 36 81  1  0  0  0  0
 37 38  2  0  0  0  0
 37 82  1  0  0  0  0
 38 39  1  0  0  0  0
 38 83  1  0  0  0  0
 39 40  2  0  0  0  0
 39 84  1  0  0  0  0
 40 85  1  0  0  0  0
M  CHG  1   7   1
M  END
>  <charge>
1

>  <KI_NM>
0.07

>  <number_of_rotatable_bonds>
12

>  <lm5_entropy_jk>
45.93606948979449

>  <ligand_crystal_conformation>
B

$$$$
