5NYA
 OpenBabel11252210453D

 16 16  0  0  0  0  0  0  0  0999 V2000
   -5.2110    3.6470   15.2450 C   0  0  0  0  0  0  0  0  0  0  0  0
   -5.6470    1.2630   16.0070 N   0  5  0  0  0  0  0  0  0  0  0  0
   -4.5210    2.7870   17.5480 O   0  0  0  0  0  0  0  0  0  0  0  0
   -4.0890    3.3270   14.4520 C   0  0  0  0  0  0  0  0  0  0  0  0
   -6.9420    3.1150   17.0900 O   0  0  0  0  0  0  0  0  0  0  0  0
   -3.7320    4.1600   13.3820 C   0  0  0  0  0  0  0  0  0  0  0  0
   -4.4600    5.3290   13.1130 C   0  0  0  0  0  0  0  0  0  0  0  0
   -5.5540    5.6640   13.9260 C   0  0  0  0  0  0  0  0  0  0  0  0
   -5.9340    4.8330   14.9900 C   0  0  0  0  0  0  0  0  0  0  0  0
   -5.6410    2.6670   16.6570 S   0  0  0  0  0  0  0  0  0  0  0  0
   -3.4820    2.4470   14.6690 H   0  0  0  0  0  0  0  0  0  0  0  0
   -2.8640    3.9100   12.7710 H   0  0  0  0  0  0  0  0  0  0  0  0
   -4.1620    5.9850   12.2940 H   0  0  0  0  0  0  0  0  0  0  0  0
   -6.0990    6.5890   13.7440 H   0  0  0  0  0  0  0  0  0  0  0  0
   -6.7670    5.1320   15.6340 H   0  0  0  0  0  0  0  0  0  0  0  0
   -4.7920    1.1630   16.6180 H   0  0  0  0  0  0  0  0  0  0  0  0
  1  4  2  0  0  0  0
  1  9  1  0  0  0  0
  1 10  1  0  0  0  0
  2 10  1  0  0  0  0
  3 10  2  0  0  0  0
  4  6  1  0  0  0  0
  5 10  2  0  0  0  0
  6  7  2  0  0  0  0
  7  8  1  0  0  0  0
  8  9  2  0  0  0  0
 11  4  1  0  0  0  0
 12  6  1  0  0  0  0
 13  7  1  0  0  0  0
 14  8  1  0  0  0  0
 15  9  1  0  0  0  0
 16  2  1  0  0  0  0
M  CHG  1   2  -1
M  END
>  <deltaG_kcalmol>
-8.7

>  <number_of_rotatable_bonds>
1

>  <charge>
-1

>  <lm5_entropy_jk>
14.133140156892344

$$$$
