5NYA
 OpenBabel11252210453D

 16 16  0  0  0  0  0  0  0  0999 V2000
   -5.4360    3.7920   15.4990 C   0  0  0  0  0  0  0  0  0  0  0  0
   -5.8820    1.3450   16.0730 N   0  5  0  0  0  0  0  0  0  0  0  0
   -4.9400    2.7550   17.7810 O   0  0  0  0  0  0  0  0  0  0  0  0
   -4.2580    3.5320   14.7650 C   0  0  0  0  0  0  0  0  0  0  0  0
   -7.3190    3.0970   17.1390 O   0  0  0  0  0  0  0  0  0  0  0  0
   -3.8390    4.4390   13.7810 C   0  0  0  0  0  0  0  0  0  0  0  0
   -4.5540    5.6240   13.5480 C   0  0  0  0  0  0  0  0  0  0  0  0
   -5.7010    5.8990   14.3070 C   0  0  0  0  0  0  0  0  0  0  0  0
   -6.1480    4.9930   15.2790 C   0  0  0  0  0  0  0  0  0  0  0  0
   -5.9780    2.7080   16.7900 S   0  0  0  0  0  0  0  0  0  0  0  0
   -3.6620    2.6380   14.9540 H   0  0  0  0  0  0  0  0  0  0  0  0
   -2.9390    4.2290   13.2030 H   0  0  0  0  0  0  0  0  0  0  0  0
   -4.2090    6.3330   12.7930 H   0  0  0  0  0  0  0  0  0  0  0  0
   -6.2400    6.8320   14.1480 H   0  0  0  0  0  0  0  0  0  0  0  0
   -7.0300    5.2390   15.8770 H   0  0  0  0  0  0  0  0  0  0  0  0
   -5.0510    1.3020   16.7210 H   0  0  0  0  0  0  0  0  0  0  0  0
  1  4  2  0  0  0  0
  1  9  1  0  0  0  0
  1 10  1  0  0  0  0
  2 10  1  0  0  0  0
  3 10  2  0  0  0  0
  4  6  1  0  0  0  0
  5 10  2  0  0  0  0
  6  7  2  0  0  0  0
  7  8  1  0  0  0  0
  8  9  2  0  0  0  0
 11  4  1  0  0  0  0
 12  6  1  0  0  0  0
 13  7  1  0  0  0  0
 14  8  1  0  0  0  0
 15  9  1  0  0  0  0
 16  2  1  0  0  0  0
M  CHG  1   2  -1
M  END
>  <deltaG_kcalmol>
-8.7

>  <number_of_rotatable_bonds>
1

>  <charge>
-1

>  <lm5_entropy_jk>
14.133140156892344

$$$$
