3S00
 OpenBabel11252210453D

 28 29  0  0  1  0  0  0  0  0999 V2000
   65.8620  154.3790  -50.2330 N   0  0  0  0  0  0  0  0  0  0  0  0
   67.4750  153.4100  -51.7140 N   0  0  0  0  0  0  0  0  0  0  0  0
   64.3880  154.9220  -48.4130 N   0  0  0  0  0  0  0  0  0  0  0  0
   66.9520  153.4900  -50.4620 C   0  0  0  0  0  0  0  0  0  0  0  0
   67.3770  152.6900  -49.3670 C   0  0  0  0  0  0  0  0  0  0  0  0
   68.4750  151.7780  -49.3540 C   0  0  0  0  0  0  0  0  0  0  0  0
   68.7800  150.9440  -48.1680 C   0  0  0  0  0  0  0  0  0  0  0  0
   65.3910  154.1840  -48.9780 C   0  0  0  0  0  0  0  0  0  0  0  0
   63.7400  154.4820  -47.1430 C   0  0  0  0  0  0  0  0  0  0  0  0
   62.9670  155.6450  -46.5720 C   0  0  0  0  0  0  0  0  0  0  0  0
   63.0220  156.0030  -45.2910 C   0  0  0  0  0  0  0  0  0  0  0  0
   69.9240  149.2710  -46.6690 C   0  0  0  0  0  0  0  0  0  0  0  0
   68.8690  149.8890  -46.0630 C   0  0  0  0  0  0  0  0  0  0  0  0
   68.2200  150.8450  -46.9220 C   0  0  0  0  0  0  0  0  0  0  0  0
   69.2020  151.6570  -50.3480 O   0  0  0  0  0  0  0  0  0  0  0  0
   70.9580  148.1350  -45.9680 Cl  0  0  0  0  0  0  0  0  0  0  0  0
   66.2890  152.8870  -48.0370 S   0  0  0  0  0  0  0  0  0  0  0  0
   70.1210  149.8290  -48.3010 S   0  0  0  0  0  0  0  0  0  0  0  0
   67.1600  154.0520  -52.4700 H   0  0  0  0  0  0  0  0  0  0  0  0
   68.2980  152.8200  -51.8860 H   0  0  0  0  0  0  0  0  0  0  0  0
   63.7310  155.4350  -49.0420 H   0  0  0  0  0  0  0  0  0  0  0  0
   64.5160  154.1220  -46.4190 H   0  0  0  0  0  0  0  0  0  0  0  0
   63.0150  153.6430  -47.3480 H   0  0  0  0  0  0  0  0  0  0  0  0
   68.5280  149.7110  -45.0460 H   0  0  0  0  0  0  0  0  0  0  0  0
   67.3710  151.3960  -46.5160 H   0  0  0  0  0  0  0  0  0  0  0  0
   62.4330  156.8340  -44.8990 H   0  0  0  0  0  0  0  0  0  0  0  0
   63.6410  155.4920  -44.5530 H   0  0  0  0  0  0  0  0  0  0  0  0
   62.3330  156.1680  -47.2940 H   0  0  0  0  0  0  0  0  0  0  0  0
  1  4  1  0  0  0  0
  1  8  2  0  0  0  0
  2  4  1  0  0  0  0
  2 19  1  0  0  0  0
  2 20  1  0  0  0  0
  3  8  1  0  0  0  0
  3  9  1  0  0  0  0
  3 21  1  0  0  0  0
  4  5  2  0  0  0  0
  5  6  1  0  0  0  0
  5 17  1  0  0  0  0
  6  7  1  0  0  0  0
  6 15  2  0  0  0  0
  7 14  2  0  0  0  0
  7 18  1  0  0  0  0
  8 17  1  0  0  0  0
  9 10  1  0  0  0  0
  9 22  1  0  0  0  0
  9 23  1  0  0  0  0
 10 11  2  0  0  0  0
 10 28  1  0  0  0  0
 11 26  1  0  0  0  0
 11 27  1  0  0  0  0
 12 13  2  0  0  0  0
 12 16  1  0  0  0  0
 12 18  1  0  0  0  0
 13 14  1  0  0  0  0
 13 24  1  0  0  0  0
 14 25  1  0  0  0  0
M  END
>  <lm5_entropy_jk>
31.418959509749985

>  <number_of_rotatable_bonds>
5

>  <IC50_NM>
12000

>  <charge>
0

$$$$
