3qtw.pdb
 OpenBabel11252210453D

 33 35  0  0  1  0  0  0  0  0999 V2000
   65.8500  154.3740  -50.3730 N   0  0  0  0  0  0  0  0  0  0  0  0
   67.3670  153.5510  -52.0540 N   0  0  0  0  0  0  0  0  0  0  0  0
   70.8610  150.0250  -47.5620 N   0  0  0  0  0  0  0  0  0  0  0  0
   64.4870  154.7180  -48.4640 N   0  0  0  0  0  0  0  0  0  0  0  0
   66.9580  153.5750  -50.7620 C   0  0  0  0  0  0  0  0  0  0  0  0
   67.5490  152.7720  -49.7560 C   0  0  0  0  0  0  0  0  0  0  0  0
   68.6080  151.8420  -49.9640 C   0  0  0  0  0  0  0  0  0  0  0  0
   69.0170  150.9460  -48.8380 C   0  0  0  0  0  0  0  0  0  0  0  0
   70.3810  150.8990  -48.4790 C   0  0  0  0  0  0  0  0  0  0  0  0
   69.9790  149.1830  -46.9530 C   0  0  0  0  0  0  0  0  0  0  0  0
   68.6050  149.2030  -47.2310 C   0  0  0  0  0  0  0  0  0  0  0  0
   68.1160  150.0930  -48.1930 C   0  0  0  0  0  0  0  0  0  0  0  0
   65.5490  154.1030  -49.0760 C   0  0  0  0  0  0  0  0  0  0  0  0
   63.8640  154.3890  -47.2120 C   0  0  0  0  0  0  0  0  0  0  0  0
   62.9530  155.3540  -46.7230 C   0  0  0  0  0  0  0  0  0  0  0  0
   62.2970  155.1340  -45.5150 C   0  0  0  0  0  0  0  0  0  0  0  0
   62.5400  153.9650  -44.7820 C   0  0  0  0  0  0  0  0  0  0  0  0
   63.4260  153.0100  -45.2810 C   0  0  0  0  0  0  0  0  0  0  0  0
   64.0790  153.2000  -46.5050 C   0  0  0  0  0  0  0  0  0  0  0  0
   69.2030  151.7460  -51.0370 O   0  0  0  0  0  0  0  0  0  0  0  0
   66.7120  152.9440  -48.2580 S   0  0  0  0  0  0  0  0  0  0  0  0
   66.9620  154.1840  -52.7670 H   0  0  0  0  0  0  0  0  0  0  0  0
   68.1970  152.9950  -52.3160 H   0  0  0  0  0  0  0  0  0  0  0  0
   71.1020  151.5870  -48.9460 H   0  0  0  0  0  0  0  0  0  0  0  0
   70.3830  148.4700  -46.2190 H   0  0  0  0  0  0  0  0  0  0  0  0
   67.9260  148.5280  -46.7020 H   0  0  0  0  0  0  0  0  0  0  0  0
   67.0470  150.0970  -48.4240 H   0  0  0  0  0  0  0  0  0  0  0  0
   63.8850  155.3340  -49.0720 H   0  0  0  0  0  0  0  0  0  0  0  0
   62.7500  156.2640  -47.2910 H   0  0  0  0  0  0  0  0  0  0  0  0
   61.5900  155.8800  -45.1400 H   0  0  0  0  0  0  0  0  0  0  0  0
   62.0360  153.8030  -43.8270 H   0  0  0  0  0  0  0  0  0  0  0  0
   63.6180  152.0960  -44.7120 H   0  0  0  0  0  0  0  0  0  0  0  0
   64.7170  152.3970  -46.8780 H   0  0  0  0  0  0  0  0  0  0  0  0
  1  5  1  0  0  0  0
  1 13  2  0  0  0  0
  2  5  1  0  0  0  0
  2 22  1  0  0  0  0
  2 23  1  0  0  0  0
  3  9  2  0  0  0  0
  3 10  1  0  0  0  0
  4 13  1  0  0  0  0
  4 14  1  0  0  0  0
  4 28  1  0  0  0  0
  5  6  2  0  0  0  0
  6 21  1  0  0  0  0
  7  6  1  0  0  0  0
  7  8  1  0  0  0  0
  7 20  2  0  0  0  0
  8  9  1  0  0  0  0
  8 12  2  0  0  0  0
  9 24  1  0  0  0  0
 10 11  2  0  0  0  0
 10 25  1  0  0  0  0
 11 12  1  0  0  0  0
 11 26  1  0  0  0  0
 12 27  1  0  0  0  0
 13 21  1  0  0  0  0
 14 15  2  0  0  0  0
 14 19  1  0  0  0  0
 15 16  1  0  0  0  0
 15 29  1  0  0  0  0
 16 17  2  0  0  0  0
 16 30  1  0  0  0  0
 17 18  1  0  0  0  0
 17 31  1  0  0  0  0
 18 19  2  0  0  0  0
 18 32  1  0  0  0  0
 19 33  1  0  0  0  0
M  END
>  <lm5_entropy_jk>
20.66385753466715

>  <number_of_rotatable_bonds>
4

>  <IC50_NM>
650

>  <charge>
0

$$$$
