5MO2
 OpenBabel11252210453D

 23 23  0  0  0  0  0  0  0  0999 V2000
   -1.7980   14.5260   16.3200 N   0  0  0  0  0  0  0  0  0  0  0  0
   -1.7340   12.5660   15.0550 N   0  3  0  0  0  0  0  0  0  0  0  0
   -2.7910   14.3250   14.2290 N   0  0  0  0  0  0  0  0  0  0  0  0
   -1.1780   16.1450   18.7700 C   0  0  0  0  0  0  0  0  0  0  0  0
   -2.3020   16.5240   17.8010 C   0  0  0  0  0  0  0  0  0  0  0  0
   -1.9710   16.0200   16.3880 C   0  0  0  0  0  0  0  0  0  0  0  0
   -0.8840   13.9850   17.3870 C   0  0  0  0  0  0  0  0  0  0  0  0
   -1.0660   14.6170   18.7910 C   0  0  0  0  0  0  0  0  0  0  0  0
   -2.1620   13.7900   15.2380 C   0  0  0  0  0  0  0  0  0  0  0  0
   -1.3850   16.5230   19.7850 H   0  0  0  0  0  0  0  0  0  0  0  0
   -0.2260   16.6090   18.4710 H   0  0  0  0  0  0  0  0  0  0  0  0
   -3.2560   16.0980   18.1250 H   0  0  0  0  0  0  0  0  0  0  0  0
   -2.4430   17.6170   17.7930 H   0  0  0  0  0  0  0  0  0  0  0  0
   -2.7800   16.3670   15.7340 H   0  0  0  0  0  0  0  0  0  0  0  0
   -1.0620   16.5280   16.0450 H   0  0  0  0  0  0  0  0  0  0  0  0
    0.1590   14.1010   17.0710 H   0  0  0  0  0  0  0  0  0  0  0  0
   -1.0420   12.9040   17.5120 H   0  0  0  0  0  0  0  0  0  0  0  0
   -0.2420   14.3230   19.4640 H   0  0  0  0  0  0  0  0  0  0  0  0
   -1.9610   14.1970   19.2560 H   0  0  0  0  0  0  0  0  0  0  0  0
   -2.2010   11.9640   14.3820 H   0  0  0  0  0  0  0  0  0  0  0  0
   -1.2200   12.0730   15.7780 H   0  0  0  0  0  0  0  0  0  0  0  0
   -3.1730   15.2610   14.2680 H   0  0  0  0  0  0  0  0  0  0  0  0
   -3.2050   13.7140   13.5240 H   0  0  0  0  0  0  0  0  0  0  0  0
  1  6  1  0  0  0  0
  1  7  1  0  0  0  0
  1  9  1  0  0  0  0
  2  9  2  0  0  0  0
  2 20  1  0  0  0  0
  2 21  1  0  0  0  0
  3  9  1  0  0  0  0
  3 22  1  0  0  0  0
  3 23  1  0  0  0  0
  4  5  1  0  0  0  0
  4  8  1  0  0  0  0
  4 10  1  0  0  0  0
  4 11  1  0  0  0  0
  5  6  1  0  0  0  0
  5 12  1  0  0  0  0
  5 13  1  0  0  0  0
  6 14  1  0  0  0  0
  6 15  1  0  0  0  0
  7  8  1  0  0  0  0
  7 16  1  0  0  0  0
  7 17  1  0  0  0  0
  8 18  1  0  0  0  0
  8 19  1  0  0  0  0
M  CHG  1   2   1
M  END
>  <number_of_rotatable_bonds>
1

>  <lm5_entropy_jk>
13.765940156892343

>  <deltaG_kcalmol>
-5.25

>  <charge>
1

$$$$
