6T5W
 OpenBabel11252210453D

 54 56  0  0  1  0  0  0  0  0999 V2000
    0.1190   21.0480   15.2500 N   0  3  0  0  0  0  0  0  0  0  0  0
    1.3660   20.9980   16.1640 C   0  0  2  0  0  0  0  0  0  0  0  0
   -0.4990   18.6030   19.5020 O   0  0  0  0  0  0  0  0  0  0  0  0
    2.6880   21.1730   15.3370 C   0  0  0  0  0  0  0  0  0  0  0  0
    1.8760   19.7920   18.2970 N   0  0  0  0  0  0  0  0  0  0  0  0
    0.9710   18.6600   16.5280 O   0  0  0  0  0  0  0  0  0  0  0  0
    2.5890   22.3130   14.3430 C   0  0  0  0  0  0  0  0  0  0  0  0
    0.5260   16.5770   19.4000 N   0  0  0  0  0  0  0  0  0  0  0  0
    2.6900   23.6400   14.7850 C   0  0  0  0  0  0  0  0  0  0  0  0
   -2.4760   14.3400   14.3140 N   0  0  0  0  0  0  0  0  0  0  0  0
    2.5790   24.7030   13.8720 C   0  0  0  0  0  0  0  0  0  0  0  0
   -1.6010   13.6640   16.3830 N   0  3  0  0  0  0  0  0  0  0  0  0
    2.3600   24.4340   12.5110 C   0  0  0  0  0  0  0  0  0  0  0  0
    2.2570   23.1070   12.0630 C   0  0  0  0  0  0  0  0  0  0  0  0
    2.3740   22.0480   12.9810 C   0  0  0  0  0  0  0  0  0  0  0  0
    1.3730   19.7100   17.0020 C   0  0  0  0  0  0  0  0  0  0  0  0
    1.9280   18.6110   19.1880 C   0  0  2  0  0  0  0  0  0  0  0  0
    0.5300   17.9580   19.3760 C   0  0  0  0  0  0  0  0  0  0  0  0
   -0.7040   15.7430   19.4290 C   0  0  0  0  0  0  0  0  0  0  0  0
   -1.1160   15.3140   18.0330 C   0  0  0  0  0  0  0  0  0  0  0  0
   -1.5180   16.3730   17.1540 C   0  0  0  0  0  0  0  0  0  0  0  0
   -1.9560   16.0410   15.9020 C   0  0  0  0  0  0  0  0  0  0  0  0
   -2.0140   14.6760   15.5460 C   0  0  0  0  0  0  0  0  0  0  0  0
   -1.1240   13.9710   17.6740 C   0  0  0  0  0  0  0  0  0  0  0  0
    2.5670   19.1000   20.5130 C   0  0  0  0  0  0  0  0  0  0  0  0
    3.2020   20.4700   20.1900 C   0  0  0  0  0  0  0  0  0  0  0  0
    2.4050   20.9940   18.9800 C   0  0  0  0  0  0  0  0  0  0  0  0
    0.1680   21.8530   14.6040 H   0  0  0  0  0  0  0  0  0  0  0  0
   -0.7650   21.1340   15.7790 H   0  0  0  0  0  0  0  0  0  0  0  0
    0.0410   20.1870   14.6780 H   0  0  0  0  0  0  0  0  0  0  0  0
    1.2720   21.8080   16.9000 H   0  0  0  0  0  0  0  0  0  0  0  0
    3.5510   21.3450   16.0000 H   0  0  0  0  0  0  0  0  0  0  0  0
    2.9450   20.2420   14.8090 H   0  0  0  0  0  0  0  0  0  0  0  0
    1.4370   16.1240   19.3670 H   0  0  0  0  0  0  0  0  0  0  0  0
    2.8620   23.8510   15.8410 H   0  0  0  0  0  0  0  0  0  0  0  0
   -2.9270   15.0930   13.7990 H   0  0  0  0  0  0  0  0  0  0  0  0
   -2.8390   13.4070   14.1230 H   0  0  0  0  0  0  0  0  0  0  0  0
    2.6630   25.7350   14.2200 H   0  0  0  0  0  0  0  0  0  0  0  0
    2.2720   25.2580   11.8000 H   0  0  0  0  0  0  0  0  0  0  0  0
    2.0890   22.9010   11.0040 H   0  0  0  0  0  0  0  0  0  0  0  0
    2.3060   21.0210   12.6260 H   0  0  0  0  0  0  0  0  0  0  0  0
    2.5680   17.8590   18.7130 H   0  0  0  0  0  0  0  0  0  0  0  0
   -0.5500   14.8750   20.0910 H   0  0  0  0  0  0  0  0  0  0  0  0
   -1.5270   16.3200   19.8840 H   0  0  0  0  0  0  0  0  0  0  0  0
    3.3030   18.3810   20.8980 H   0  0  0  0  0  0  0  0  0  0  0  0
    1.7860   19.2270   21.2800 H   0  0  0  0  0  0  0  0  0  0  0  0
    3.1690   21.1740   21.0400 H   0  0  0  0  0  0  0  0  0  0  0  0
    4.2620   20.3500   19.9230 H   0  0  0  0  0  0  0  0  0  0  0  0
    1.5650   21.6200   19.3270 H   0  0  0  0  0  0  0  0  0  0  0  0
    3.0440   21.6050   18.3240 H   0  0  0  0  0  0  0  0  0  0  0  0
   -2.2720   16.8190   15.2190 H   0  0  0  0  0  0  0  0  0  0  0  0
   -1.4830   17.4120   17.4770 H   0  0  0  0  0  0  0  0  0  0  0  0
   -0.8110   13.1530   18.3130 H   0  0  0  0  0  0  0  0  0  0  0  0
   -1.6550   12.6950   16.0870 H   0  0  0  0  0  0  0  0  0  0  0  0
  1  2  1  0  0  0  0
  1 28  1  0  0  0  0
  1 29  1  0  0  0  0
  1 30  1  0  0  0  0
  2  4  1  0  0  0  0
  2 16  1  0  0  0  0
  2 31  1  1  0  0  0
  3 18  2  0  0  0  0
  4  7  1  0  0  0  0
  4 32  1  0  0  0  0
  4 33  1  0  0  0  0
  5 16  1  0  0  0  0
  5 17  1  0  0  0  0
  5 27  1  0  0  0  0
  6 16  2  0  0  0  0
  7  9  2  0  0  0  0
  7 15  1  0  0  0  0
  8 18  1  0  0  0  0
  8 19  1  0  0  0  0
  8 34  1  0  0  0  0
  9 11  1  0  0  0  0
  9 35  1  0  0  0  0
 10 23  1  0  0  0  0
 10 36  1  0  0  0  0
 10 37  1  0  0  0  0
 11 13  2  0  0  0  0
 11 38  1  0  0  0  0
 12 23  2  0  0  0  0
 12 24  1  0  0  0  0
 12 54  1  0  0  0  0
 13 14  1  0  0  0  0
 13 39  1  0  0  0  0
 14 15  2  0  0  0  0
 14 40  1  0  0  0  0
 15 41  1  0  0  0  0
 17 18  1  0  0  0  0
 17 25  1  0  0  0  0
 17 42  1  6  0  0  0
 19 20  1  0  0  0  0
 19 43  1  0  0  0  0
 19 44  1  0  0  0  0
 20 21  1  0  0  0  0
 20 24  2  0  0  0  0
 21 22  2  0  0  0  0
 21 52  1  0  0  0  0
 22 23  1  0  0  0  0
 22 51  1  0  0  0  0
 24 53  1  0  0  0  0
 25 26  1  0  0  0  0
 25 45  1  0  0  0  0
 25 46  1  0  0  0  0
 26 27  1  0  0  0  0
 26 47  1  0  0  0  0
 26 48  1  0  0  0  0
 27 49  1  0  0  0  0
 27 50  1  0  0  0  0
M  CHG  2   1   1  12   1
M  END
>  <number_of_rotatable_bonds>
8

>  <lm5_entropy_jk>
24.380619327158232

>  <protonation_change>
deprotonated_in_solution

>  <protonation_site>
54

>  <protonation_pKa>
6.3

>  <protonation_pKa_method>
experiment

>  <experiment_pH>
7.8

>  <protonated_energy_kcalmol>
126.798999

>  <deprotonated_energy_kcalmol>
33.623896

>  <deltaG_kcalmol>
-5.96

>  <charge>
2

$$$$
