5LAB
 OpenBabel11252210453D

 41 41  0  0  0  0  0  0  0  0999 V2000
    8.1850   26.9150    1.9570 N   0  0  0  0  0  0  0  0  0  0  0  0
    5.8070   25.5180    4.2330 C   0  0  0  0  0  0  0  0  0  0  0  0
    9.0280   23.6790    0.2830 N   0  0  0  0  0  0  0  0  0  0  0  0
    4.7830   22.1760    5.4470 O   0  0  0  0  0  0  0  0  0  0  0  0
    8.2440   26.5670    3.6530 S   0  0  0  0  0  0  0  0  0  0  0  0
    4.9950   24.4810    4.6990 C   0  0  0  0  0  0  0  0  0  0  0  0
    9.6010   26.0790    3.9320 O   0  0  0  0  0  0  0  0  0  0  0  0
    5.5180   23.2000    4.8840 C   0  0  0  0  0  0  0  0  0  0  0  0
    7.7250   27.7420    4.3500 O   0  0  0  0  0  0  0  0  0  0  0  0
    6.8300   22.9360    4.5230 C   0  0  0  0  0  0  0  0  0  0  0  0
    8.7280   22.5470   -0.5680 O   0  0  0  0  0  0  0  0  0  0  0  0
    7.6630   23.9400    4.0340 C   0  0  0  0  0  0  0  0  0  0  0  0
    6.9400   24.6050    0.1550 O   0  0  0  0  0  0  0  0  0  0  0  0
    7.1410   25.2360    3.9360 C   0  0  0  0  0  0  0  0  0  0  0  0
    3.4100   22.2900    5.9060 C   0  0  0  0  0  0  0  0  0  0  0  0
    7.0920   27.8160    1.4230 C   0  0  0  0  0  0  0  0  0  0  0  0
    8.8610   25.9990    0.9350 C   0  0  0  0  0  0  0  0  0  0  0  0
    8.1380   24.7100    0.4640 C   0  0  0  0  0  0  0  0  0  0  0  0
    7.4810   29.0470    0.5510 C   0  0  0  0  0  0  0  0  0  0  0  0
    8.3530   30.0220    1.3310 C   0  0  0  0  0  0  0  0  0  0  0  0
    8.1780   28.7450   -0.7790 C   0  0  0  0  0  0  0  0  0  0  0  0
    5.4010   26.5280    4.1440 H   0  0  0  0  0  0  0  0  0  0  0  0
    9.9990   23.7720    0.5830 H   0  0  0  0  0  0  0  0  0  0  0  0
    3.9590   24.6800    4.9400 H   0  0  0  0  0  0  0  0  0  0  0  0
    7.2030   21.9240    4.6250 H   0  0  0  0  0  0  0  0  0  0  0  0
    8.7950   21.7430    0.0330 H   0  0  0  0  0  0  0  0  0  0  0  0
    8.7020   23.7020    3.7820 H   0  0  0  0  0  0  0  0  0  0  0  0
    3.0520   21.3160    6.2750 H   0  0  0  0  0  0  0  0  0  0  0  0
    2.7440   22.6020    5.0890 H   0  0  0  0  0  0  0  0  0  0  0  0
    3.3250   23.0080    6.7300 H   0  0  0  0  0  0  0  0  0  0  0  0
    6.3290   27.2360    0.8890 H   0  0  0  0  0  0  0  0  0  0  0  0
    6.5780   28.2810    2.2750 H   0  0  0  0  0  0  0  0  0  0  0  0
    9.1030   26.5330    0.0110 H   0  0  0  0  0  0  0  0  0  0  0  0
    9.8440   25.6890    1.3260 H   0  0  0  0  0  0  0  0  0  0  0  0
    6.5310   29.5600    0.3170 H   0  0  0  0  0  0  0  0  0  0  0  0
    9.2870   29.5340    1.5990 H   0  0  0  0  0  0  0  0  0  0  0  0
    7.8650   30.3500    2.2570 H   0  0  0  0  0  0  0  0  0  0  0  0
    8.5920   30.9170    0.7420 H   0  0  0  0  0  0  0  0  0  0  0  0
    9.2520   28.5690   -0.6410 H   0  0  0  0  0  0  0  0  0  0  0  0
    8.0870   29.6050   -1.4580 H   0  0  0  0  0  0  0  0  0  0  0  0
    7.7320   27.8850   -1.2900 H   0  0  0  0  0  0  0  0  0  0  0  0
  1 17  1  0  0  0  0
  1 16  1  0  0  0  0
  1  5  1  0  0  0  0
  2 14  2  0  0  0  0
  2  6  1  0  0  0  0
  2 22  1  0  0  0  0
  3 11  1  0  0  0  0
  3 18  1  0  0  0  0
  3 23  1  0  0  0  0
  4  8  1  0  0  0  0
  4 15  1  0  0  0  0
  5  7  2  0  0  0  0
  5 14  1  0  0  0  0
  5  9  2  0  0  0  0
  6  8  2  0  0  0  0
  6 24  1  0  0  0  0
  8 10  1  0  0  0  0
 10 12  2  0  0  0  0
 10 25  1  0  0  0  0
 11 26  1  0  0  0  0
 12 14  1  0  0  0  0
 12 27  1  0  0  0  0
 13 18  2  0  0  0  0
 15 28  1  0  0  0  0
 15 29  1  0  0  0  0
 15 30  1  0  0  0  0
 16 19  1  0  0  0  0
 16 31  1  0  0  0  0
 16 32  1  0  0  0  0
 17 18  1  0  0  0  0
 17 33  1  0  0  0  0
 17 34  1  0  0  0  0
 19 21  1  0  0  0  0
 19 20  1  0  0  0  0
 19 35  1  0  0  0  0
 20 36  1  0  0  0  0
 20 37  1  0  0  0  0
 20 38  1  0  0  0  0
 21 39  1  0  0  0  0
 21 40  1  0  0  0  0
 21 41  1  0  0  0  0
M  END
>  <COMPND>
5lab.pdb

>  <AUTHOR>
GENERATED BY OPEN BABEL 2.3.1

>  <MASTER>
0    0    0    0    0    0    0    0   41    0   41    0

>  <lm5_entropy_jk>
45.66589139851115

>  <number_of_rotatable_bonds>
8

>  <deltaG_kcalmol>
-11.42

>  <charge>
0

$$$$
