5LAB
 OpenBabel11252210453D

 41 41  0  0  0  0  0  0  0  0999 V2000
    7.7620   27.0280    2.4520 N   0  0  0  0  0  0  0  0  0  0  0  0
    5.7380   25.4800    4.9330 C   0  0  0  0  0  0  0  0  0  0  0  0
    8.8070   23.9340    0.9830 N   0  0  0  0  0  0  0  0  0  0  0  0
    4.6680   22.0080    5.5870 O   0  0  0  0  0  0  0  0  0  0  0  0
    8.0610   26.5780    4.0940 S   0  0  0  0  0  0  0  0  0  0  0  0
    4.9450   24.4000    5.3170 C   0  0  0  0  0  0  0  0  0  0  0  0
    9.4570   26.1180    4.1290 O   0  0  0  0  0  0  0  0  0  0  0  0
    5.3980   23.0930    5.1510 C   0  0  0  0  0  0  0  0  0  0  0  0
    7.6160   27.6780    4.9470 O   0  0  0  0  0  0  0  0  0  0  0  0
    6.6340   22.8610    4.5620 C   0  0  0  0  0  0  0  0  0  0  0  0
    8.4870   22.6290    0.4550 O   0  0  0  0  0  0  0  0  0  0  0  0
    7.4650   23.9150    4.1850 C   0  0  0  0  0  0  0  0  0  0  0  0
    6.8090   24.8110    0.3520 O   0  0  0  0  0  0  0  0  0  0  0  0
    7.0000   25.2180    4.3920 C   0  0  0  0  0  0  0  0  0  0  0  0
    3.3580   22.0860    6.2090 C   0  0  0  0  0  0  0  0  0  0  0  0
    6.8010   28.1450    2.1010 C   0  0  0  0  0  0  0  0  0  0  0  0
    8.4650   26.3540    1.2660 C   0  0  0  0  0  0  0  0  0  0  0  0
    7.9260   24.9800    0.8430 C   0  0  0  0  0  0  0  0  0  0  0  0
    7.4490   29.5360    1.8360 C   0  0  0  0  0  0  0  0  0  0  0  0
    8.2480   30.0450    3.0370 C   0  0  0  0  0  0  0  0  0  0  0  0
    8.3790   29.5650    0.6200 C   0  0  0  0  0  0  0  0  0  0  0  0
    5.3730   26.4990    5.0940 H   0  0  0  0  0  0  0  0  0  0  0  0
    9.7640   24.0570    1.3280 H   0  0  0  0  0  0  0  0  0  0  0  0
    3.9690   24.5860    5.7470 H   0  0  0  0  0  0  0  0  0  0  0  0
    6.9510   21.8350    4.4060 H   0  0  0  0  0  0  0  0  0  0  0  0
    8.5630   22.0070    1.2420 H   0  0  0  0  0  0  0  0  0  0  0  0
    8.4550   23.7030    3.7650 H   0  0  0  0  0  0  0  0  0  0  0  0
    2.9850   21.0780    6.4420 H   0  0  0  0  0  0  0  0  0  0  0  0
    2.6290   22.5630    5.5370 H   0  0  0  0  0  0  0  0  0  0  0  0
    3.3980   22.6540    7.1490 H   0  0  0  0  0  0  0  0  0  0  0  0
    6.1990   27.8770    1.2210 H   0  0  0  0  0  0  0  0  0  0  0  0
    6.0730   28.2890    2.9130 H   0  0  0  0  0  0  0  0  0  0  0  0
    8.3950   26.9620    0.3560 H   0  0  0  0  0  0  0  0  0  0  0  0
    9.5440   26.2430    1.4610 H   0  0  0  0  0  0  0  0  0  0  0  0
    6.6200   30.2430    1.6460 H   0  0  0  0  0  0  0  0  0  0  0  0
    9.0730   29.3690    3.2760 H   0  0  0  0  0  0  0  0  0  0  0  0
    7.6130   30.1280    3.9300 H   0  0  0  0  0  0  0  0  0  0  0  0
    8.6690   31.0400    2.8420 H   0  0  0  0  0  0  0  0  0  0  0  0
    9.2860   28.9790    0.7980 H   0  0  0  0  0  0  0  0  0  0  0  0
    8.6970   30.5920    0.3960 H   0  0  0  0  0  0  0  0  0  0  0  0
    7.8790   29.1810   -0.2780 H   0  0  0  0  0  0  0  0  0  0  0  0
  1 17  1  0  0  0  0
  1 16  1  0  0  0  0
  1  5  1  0  0  0  0
  2 14  2  0  0  0  0
  2  6  1  0  0  0  0
  2 22  1  0  0  0  0
  3 11  1  0  0  0  0
  3 18  1  0  0  0  0
  3 23  1  0  0  0  0
  4  8  1  0  0  0  0
  4 15  1  0  0  0  0
  5  7  2  0  0  0  0
  5 14  1  0  0  0  0
  5  9  2  0  0  0  0
  6  8  2  0  0  0  0
  6 24  1  0  0  0  0
  8 10  1  0  0  0  0
 10 12  2  0  0  0  0
 10 25  1  0  0  0  0
 11 26  1  0  0  0  0
 12 14  1  0  0  0  0
 12 27  1  0  0  0  0
 13 18  2  0  0  0  0
 15 28  1  0  0  0  0
 15 29  1  0  0  0  0
 15 30  1  0  0  0  0
 16 19  1  0  0  0  0
 16 31  1  0  0  0  0
 16 32  1  0  0  0  0
 17 18  1  0  0  0  0
 17 33  1  0  0  0  0
 17 34  1  0  0  0  0
 19 21  1  0  0  0  0
 19 20  1  0  0  0  0
 19 35  1  0  0  0  0
 20 36  1  0  0  0  0
 20 37  1  0  0  0  0
 20 38  1  0  0  0  0
 21 39  1  0  0  0  0
 21 40  1  0  0  0  0
 21 41  1  0  0  0  0
M  END
>  <lm5_entropy_jk>
45.66589139851115

>  <number_of_rotatable_bonds>
8

>  <deltaG_kcalmol>
-11.42

>  <charge>
0

$$$$
