3N2U
 OpenBabel11252210453D

 57 58  0  0  1  0  0  0  0  0999 V2000
    7.7910   29.1040   -1.8070 C   0  0  1  0  0  0  0  0  0  0  0  0
    8.7550   23.7250    0.9200 N   0  0  0  0  0  0  0  0  0  0  0  0
    6.8700   24.8130    0.2830 O   0  0  0  0  0  0  0  0  0  0  0  0
    8.1660   26.6450    3.8640 S   0  0  0  0  0  0  0  0  0  0  0  0
    8.3140   28.2230   -2.9730 C   0  0  2  0  0  0  0  0  0  0  0  0
    8.0860   27.0420    2.1830 N   0  0  0  0  0  0  0  0  0  0  0  0
    9.5110   26.0890    4.0670 O   0  0  0  0  0  0  0  0  0  0  0  0
    8.0110   24.8630    0.7480 C   0  0  0  0  0  0  0  0  0  0  0  0
    7.7330   27.8390    4.5900 O   0  0  0  0  0  0  0  0  0  0  0  0
    5.0320   30.9940   -3.5260 C   0  0  0  0  0  0  0  0  0  0  0  0
    9.6280   27.6930   -2.7020 O   0  0  0  0  0  0  0  0  0  0  0  0
    6.5060   30.5330   -3.3700 C   0  0  2  0  0  0  0  0  0  0  0  0
    8.6780   28.1260   -5.3820 O   0  0  0  0  0  0  0  0  0  0  0  0
    6.9780   29.6780   -4.5830 C   0  0  1  0  0  0  0  0  0  0  0  0
    7.0550   30.4820   -5.7770 O   0  0  0  0  0  0  0  0  0  0  0  0
    8.3530   29.0150   -4.3030 C   0  0  1  0  0  0  0  0  0  0  0  0
    4.4410   22.3620    5.3580 O   0  0  0  0  0  0  0  0  0  0  0  0
    7.4770   28.9260    0.5800 C   0  0  0  0  0  0  0  0  0  0  0  0
    6.5270   29.6880   -2.1850 O   0  0  0  0  0  0  0  0  0  0  0  0
    6.9870   27.9440    1.6650 C   0  0  0  0  0  0  0  0  0  0  0  0
    4.1970   29.9080   -3.0970 O   0  0  0  0  0  0  0  0  0  0  0  0
    8.7500   26.1560    1.1210 C   0  0  0  0  0  0  0  0  0  0  0  0
    7.4970   28.2440   -0.6930 O   0  0  0  0  0  0  0  0  0  0  0  0
    6.5270   23.0570    4.4660 C   0  0  0  0  0  0  0  0  0  0  0  0
    8.2590   22.4450    0.4980 O   0  0  0  0  0  0  0  0  0  0  0  0
    6.9940   25.3720    4.1090 C   0  0  0  0  0  0  0  0  0  0  0  0
    5.6910   25.7250    4.4650 C   0  0  0  0  0  0  0  0  0  0  0  0
    7.4310   24.0440    4.0830 C   0  0  0  0  0  0  0  0  0  0  0  0
    4.8200   24.7080    4.8590 C   0  0  0  0  0  0  0  0  0  0  0  0
    5.2450   23.3800    4.8870 C   0  0  0  0  0  0  0  0  0  0  0  0
    3.0850   22.5360    5.8520 C   0  0  0  0  0  0  0  0  0  0  0  0
    8.5370   29.8690   -1.5400 H   0  0  0  0  0  0  0  0  0  0  0  0
    9.7240   23.7490    1.2520 H   0  0  0  0  0  0  0  0  0  0  0  0
    7.5840   27.4090   -3.0760 H   0  0  0  0  0  0  0  0  0  0  0  0
    4.8700   31.8880   -2.9020 H   0  0  0  0  0  0  0  0  0  0  0  0
    4.8300   31.2930   -4.5680 H   0  0  0  0  0  0  0  0  0  0  0  0
    9.9820   27.4220   -3.5760 H   0  0  0  0  0  0  0  0  0  0  0  0
    7.1610   31.4140   -3.2440 H   0  0  0  0  0  0  0  0  0  0  0  0
    8.3520   28.5630   -6.1990 H   0  0  0  0  0  0  0  0  0  0  0  0
    6.2330   28.8750   -4.7130 H   0  0  0  0  0  0  0  0  0  0  0  0
    7.7080   31.2000   -5.6410 H   0  0  0  0  0  0  0  0  0  0  0  0
    9.1140   29.8090   -4.2050 H   0  0  0  0  0  0  0  0  0  0  0  0
    6.7930   29.7890    0.5340 H   0  0  0  0  0  0  0  0  0  0  0  0
    8.4730   29.3010    0.8550 H   0  0  0  0  0  0  0  0  0  0  0  0
    6.1350   27.3720    1.2700 H   0  0  0  0  0  0  0  0  0  0  0  0
    6.5770   28.5670    2.4790 H   0  0  0  0  0  0  0  0  0  0  0  0
    4.8070   29.5030   -2.4340 H   0  0  0  0  0  0  0  0  0  0  0  0
    8.9030   26.6910    0.1740 H   0  0  0  0  0  0  0  0  0  0  0  0
    9.7650   25.8730    1.4390 H   0  0  0  0  0  0  0  0  0  0  0  0
    6.8240   22.0140    4.4510 H   0  0  0  0  0  0  0  0  0  0  0  0
    8.3730   21.8570    1.3080 H   0  0  0  0  0  0  0  0  0  0  0  0
    5.3510   26.7650    4.4840 H   0  0  0  0  0  0  0  0  0  0  0  0
    8.4540   23.7640    3.8060 H   0  0  0  0  0  0  0  0  0  0  0  0
    3.8110   24.9610    5.1580 H   0  0  0  0  0  0  0  0  0  0  0  0
    2.6570   21.5650    6.1430 H   0  0  0  0  0  0  0  0  0  0  0  0
    2.4330   22.9660    5.0780 H   0  0  0  0  0  0  0  0  0  0  0  0
    3.0640   23.1860    6.7370 H   0  0  0  0  0  0  0  0  0  0  0  0
  1  5  1  0  0  0  0
  1 19  1  0  0  0  0
  1 23  1  0  0  0  0
  1 32  1  1  0  0  0
  2 25  1  0  0  0  0
  2  8  1  0  0  0  0
  2 33  1  0  0  0  0
  3  8  2  0  0  0  0
  4  6  1  0  0  0  0
  4  7  2  0  0  0  0
  4 26  1  0  0  0  0
  4  9  2  0  0  0  0
  5 16  1  0  0  0  0
  5 11  1  0  0  0  0
  5 34  1  6  0  0  0
  6 22  1  0  0  0  0
  6 20  1  0  0  0  0
  8 22  1  0  0  0  0
 10 21  1  0  0  0  0
 10 12  1  0  0  0  0
 10 35  1  0  0  0  0
 10 36  1  0  0  0  0
 11 37  1  0  0  0  0
 12 14  1  0  0  0  0
 12 19  1  0  0  0  0
 12 38  1  1  0  0  0
 13 16  1  0  0  0  0
 13 39  1  0  0  0  0
 14 15  1  0  0  0  0
 14 16  1  0  0  0  0
 14 40  1  6  0  0  0
 15 41  1  0  0  0  0
 16 42  1  1  0  0  0
 17 30  1  0  0  0  0
 17 31  1  0  0  0  0
 18 23  1  0  0  0  0
 18 20  1  0  0  0  0
 18 43  1  0  0  0  0
 18 44  1  0  0  0  0
 20 45  1  0  0  0  0
 20 46  1  0  0  0  0
 21 47  1  0  0  0  0
 22 48  1  0  0  0  0
 22 49  1  0  0  0  0
 24 28  2  0  0  0  0
 24 30  1  0  0  0  0
 24 50  1  0  0  0  0
 25 51  1  0  0  0  0
 26 28  1  0  0  0  0
 26 27  2  0  0  0  0
 27 29  1  0  0  0  0
 27 52  1  0  0  0  0
 28 53  1  0  0  0  0
 29 30  2  0  0  0  0
 29 54  1  0  0  0  0
 31 55  1  0  0  0  0
 31 56  1  0  0  0  0
 31 57  1  0  0  0  0
M  END
>  <COMPND>
3n2u.pdb

>  <AUTHOR>
GENERATED BY OPEN BABEL 2.3.1

>  <MASTER>
0    0    0    0    0    0    0    0   57    0   57    0

>  <lm5_entropy_jk>
36.459690472520535

>  <number_of_rotatable_bonds>
11

>  <deltaG_kcalmol>
-10.71

>  <charge>
0

$$$$
