ra6.pdb
 OpenBabel11252210453D

 31 32  0  0  0  0  0  0  0  0999 V2000
   -5.4420    1.0470   15.9600 N   0  5  0  0  0  0  0  0  0  0  0  0
   -5.0560    3.8660   15.6210 C   0  0  0  0  0  0  0  0  0  0  0  0
   -7.1180    2.6420   16.5630 O   0  0  0  0  0  0  0  0  0  0  0  0
   -5.8390    5.0120   15.4620 C   0  0  0  0  0  0  0  0  0  0  0  0
   -0.0230   11.0430   14.0640 N   0  3  0  0  0  0  0  0  0  0  0  0
   -4.9690    2.7160   17.9390 O   0  0  0  0  0  0  0  0  0  0  0  0
   -5.4430    6.0280   14.5850 C   0  0  0  0  0  0  0  0  0  0  0  0
   -0.1580   11.6820   15.1010 O   0  5  0  0  0  0  0  0  0  0  0  0
   -4.2460    5.9080   13.8640 C   0  0  0  0  0  0  0  0  0  0  0  0
    0.8540   11.2980   13.2440 O   0  0  0  0  0  0  0  0  0  0  0  0
   -3.8620    6.9320   12.8280 C   0  0  0  0  0  0  0  0  0  0  0  0
   -2.7860    7.8980   13.2330 C   0  0  0  0  0  0  0  0  0  0  0  0
   -1.7670    8.2180   12.3140 C   0  0  0  0  0  0  0  0  0  0  0  0
   -0.8460    9.2230   12.5870 C   0  0  0  0  0  0  0  0  0  0  0  0
   -0.9360    9.9280   13.8020 C   0  0  0  0  0  0  0  0  0  0  0  0
   -1.9140    9.5820   14.7540 C   0  0  0  0  0  0  0  0  0  0  0  0
   -2.8200    8.5640   14.4730 C   0  0  0  0  0  0  0  0  0  0  0  0
   -3.4360    4.7840   14.0670 C   0  0  0  0  0  0  0  0  0  0  0  0
   -3.8420    3.7720   14.9450 C   0  0  0  0  0  0  0  0  0  0  0  0
   -5.6480    2.5430   16.6530 S   0  0  0  0  0  0  0  0  0  0  0  0
   -6.7740    5.1480   16.0160 H   0  0  0  0  0  0  0  0  0  0  0  0
   -6.0600    6.9160   14.4550 H   0  0  0  0  0  0  0  0  0  0  0  0
   -4.5020    0.6500   16.3220 H   0  0  0  0  0  0  0  0  0  0  0  0
   -1.7050    7.6850   11.3590 H   0  0  0  0  0  0  0  0  0  0  0  0
   -0.0730    9.4690   11.8500 H   0  0  0  0  0  0  0  0  0  0  0  0
   -1.9700   10.1270   15.7020 H   0  0  0  0  0  0  0  0  0  0  0  0
   -3.5810    8.2900   15.2090 H   0  0  0  0  0  0  0  0  0  0  0  0
   -2.4930    4.6970   13.5240 H   0  0  0  0  0  0  0  0  0  0  0  0
   -3.1820    2.9100   15.0610 H   0  0  0  0  0  0  0  0  0  0  0  0
   -4.7550    7.5550   12.5400 H   0  0  0  0  0  0  0  0  0  0  0  0
   -3.5480    6.3890   11.8930 H   0  0  0  0  0  0  0  0  0  0  0  0
  1 20  1  0  0  0  0
  2  4  2  0  0  0  0
  2 19  1  0  0  0  0
  2 20  1  0  0  0  0
  3 20  2  0  0  0  0
  4  7  1  0  0  0  0
  5  8  1  0  0  0  0
  5 10  2  0  0  0  0
  5 15  1  0  0  0  0
  6 20  2  0  0  0  0
  7  9  2  0  0  0  0
  9 11  1  0  0  0  0
  9 18  1  0  0  0  0
 11 12  1  0  0  0  0
 12 13  2  0  0  0  0
 12 17  1  0  0  0  0
 13 14  1  0  0  0  0
 14 15  2  0  0  0  0
 15 16  1  0  0  0  0
 16 17  2  0  0  0  0
 18 19  2  0  0  0  0
 21  4  1  0  0  0  0
 22  7  1  0  0  0  0
 23  1  1  0  0  0  0
 24 13  1  0  0  0  0
 25 14  1  0  0  0  0
 26 16  1  0  0  0  0
 27 17  1  0  0  0  0
 28 18  1  0  0  0  0
 29 19  1  0  0  0  0
 30 11  1  0  0  0  0
 31 11  1  0  0  0  0
M  CHG  3   1  -1   5   1   8  -1
M  END
>  <deltaG_kcalmol>
-11.3

>  <number_of_rotatable_bonds>
4

>  <charge>
-1

>  <lm5_entropy_jk>
23.26150331504224

$$$$
