3N2V
 OpenBabel11252210453D

 42 43  0  0  0  0  0  0  0  0999 V2000
    8.9660   23.4370    0.5620 O   0  0  0  0  0  0  0  0  0  0  0  0
    8.7610   24.7740    1.0820 N   0  0  0  0  0  0  0  0  0  0  0  0
    7.5680   25.4140    0.8590 C   0  0  0  0  0  0  0  0  0  0  0  0
    7.5400   26.9110    1.1530 C   0  0  0  0  0  0  0  0  0  0  0  0
    6.5950   24.8310    0.3840 O   0  0  0  0  0  0  0  0  0  0  0  0
    8.3330   27.4500    2.3570 N   0  0  0  0  0  0  0  0  0  0  0  0
    8.4190   26.6060    3.8800 S   0  0  0  0  0  0  0  0  0  0  0  0
    8.1950   28.9670    2.4150 C   0  0  0  0  0  0  0  0  0  0  0  0
    8.6310   29.6760    1.1050 C   0  0  0  0  0  0  0  0  0  0  0  0
    7.5060   29.8420    0.2270 O   0  0  0  0  0  0  0  0  0  0  0  0
    8.0960   27.6170    4.8830 O   0  0  0  0  0  0  0  0  0  0  0  0
    7.0630   25.4940    3.9170 C   0  0  0  0  0  0  0  0  0  0  0  0
    9.6850   25.8760    3.9250 O   0  0  0  0  0  0  0  0  0  0  0  0
    5.8020   26.0660    3.9810 C   0  0  0  0  0  0  0  0  0  0  0  0
    4.7010   25.2600    4.2390 C   0  0  0  0  0  0  0  0  0  0  0  0
    4.8390   23.8990    4.5450 C   0  0  0  0  0  0  0  0  0  0  0  0
    6.1260   23.3240    4.3880 C   0  0  0  0  0  0  0  0  0  0  0  0
    7.2440   24.1060    4.0570 C   0  0  0  0  0  0  0  0  0  0  0  0
    3.6970   23.1870    5.2100 C   0  0  0  0  0  0  0  0  0  0  0  0
    3.9610   22.1670    6.1440 C   0  0  0  0  0  0  0  0  0  0  0  0
    2.9390   21.6080    6.9170 C   0  0  0  0  0  0  0  0  0  0  0  0
    1.6210   22.0660    6.8020 C   0  0  0  0  0  0  0  0  0  0  0  0
    1.3240   23.0690    5.8750 C   0  0  0  0  0  0  0  0  0  0  0  0
    2.3470   23.6120    5.0820 C   0  0  0  0  0  0  0  0  0  0  0  0
    8.8950   22.8130    1.3400 H   0  0  0  0  0  0  0  0  0  0  0  0
    9.5890   25.2860    1.3850 H   0  0  0  0  0  0  0  0  0  0  0  0
    6.4790   27.1920    1.2200 H   0  0  0  0  0  0  0  0  0  0  0  0
    7.9070   27.3590    0.2180 H   0  0  0  0  0  0  0  0  0  0  0  0
    7.1610   29.2650    2.6650 H   0  0  0  0  0  0  0  0  0  0  0  0
    8.8000   29.3900    3.2370 H   0  0  0  0  0  0  0  0  0  0  0  0
    9.0730   30.6560    1.3510 H   0  0  0  0  0  0  0  0  0  0  0  0
    9.4340   29.0910    0.6270 H   0  0  0  0  0  0  0  0  0  0  0  0
    6.8560   30.4340    0.6620 H   0  0  0  0  0  0  0  0  0  0  0  0
    5.6930   27.1450    3.8990 H   0  0  0  0  0  0  0  0  0  0  0  0
    3.7240   25.7080    4.3000 H   0  0  0  0  0  0  0  0  0  0  0  0
    6.2680   22.2620    4.5540 H   0  0  0  0  0  0  0  0  0  0  0  0
    8.2320   23.6400    3.9830 H   0  0  0  0  0  0  0  0  0  0  0  0
    4.9810   21.8480    6.3100 H   0  0  0  0  0  0  0  0  0  0  0  0
    3.1830   20.8300    7.6210 H   0  0  0  0  0  0  0  0  0  0  0  0
    0.8330   21.6420    7.4240 H   0  0  0  0  0  0  0  0  0  0  0  0
    0.3000   23.4200    5.7560 H   0  0  0  0  0  0  0  0  0  0  0  0
    2.0740   24.3790    4.3670 H   0  0  0  0  0  0  0  0  0  0  0  0
  1  2  1  0  0  0  0
  1 25  1  0  0  0  0
  2  3  1  0  0  0  0
  2 26  1  0  0  0  0
  3  5  2  0  0  0  0
  3  4  1  0  0  0  0
  4  6  1  0  0  0  0
  4 27  1  0  0  0  0
  4 28  1  0  0  0  0
  6  8  1  0  0  0  0
  6  7  1  0  0  0  0
  7 13  2  0  0  0  0
  7 12  1  0  0  0  0
  7 11  2  0  0  0  0
  8  9  1  0  0  0  0
  8 29  1  0  0  0  0
  8 30  1  0  0  0  0
  9 10  1  0  0  0  0
  9 31  1  0  0  0  0
  9 32  1  0  0  0  0
 10 33  1  0  0  0  0
 12 18  2  0  0  0  0
 12 14  1  0  0  0  0
 14 15  2  0  0  0  0
 14 34  1  0  0  0  0
 15 16  1  0  0  0  0
 15 35  1  0  0  0  0
 16 17  2  0  0  0  0
 16 19  1  0  0  0  0
 17 18  1  0  0  0  0
 17 36  1  0  0  0  0
 18 37  1  0  0  0  0
 19 24  2  0  0  0  0
 19 20  1  0  0  0  0
 20 21  2  0  0  0  0
 20 38  1  0  0  0  0
 21 22  1  0  0  0  0
 21 39  1  0  0  0  0
 22 23  2  0  0  0  0
 22 40  1  0  0  0  0
 23 24  1  0  0  0  0
 23 41  1  0  0  0  0
 24 42  1  0  0  0  0
M  END
>  <lm5_entropy_jk>
22.689748683775868

>  <number_of_rotatable_bonds>
8

>  <deltaG_kcalmol>
-10.25

>  <charge>
0

$$$$
