3N2V
 OpenBabel11252210453D

 42 43  0  0  0  0  0  0  0  0999 V2000
    8.2300   22.4930    0.6600 O   0  0  0  0  0  0  0  0  0  0  0  0
    8.7180   23.7880    1.0660 N   0  0  0  0  0  0  0  0  0  0  0  0
    8.0250   24.9250    0.7330 C   0  0  0  0  0  0  0  0  0  0  0  0
    8.8180   26.2290    0.9160 C   0  0  0  0  0  0  0  0  0  0  0  0
    6.8890   24.8560    0.2560 O   0  0  0  0  0  0  0  0  0  0  0  0
    8.2700   27.2490    1.9270 N   0  0  0  0  0  0  0  0  0  0  0  0
    8.3220   26.9480    3.6370 S   0  0  0  0  0  0  0  0  0  0  0  0
    7.2920   28.2590    1.3550 C   0  0  0  0  0  0  0  0  0  0  0  0
    7.8980   29.0590    0.1760 C   0  0  0  0  0  0  0  0  0  0  0  0
    7.5620   28.4290   -1.0720 O   0  0  0  0  0  0  0  0  0  0  0  0
    8.1070   28.2540    4.2630 O   0  0  0  0  0  0  0  0  0  0  0  0
    6.9310   25.8990    3.9660 C   0  0  0  0  0  0  0  0  0  0  0  0
    9.5720   26.2100    3.8790 O   0  0  0  0  0  0  0  0  0  0  0  0
    5.6660   26.4830    4.1260 C   0  0  0  0  0  0  0  0  0  0  0  0
    4.5970   25.6830    4.5350 C   0  0  0  0  0  0  0  0  0  0  0  0
    4.7540   24.3090    4.8170 C   0  0  0  0  0  0  0  0  0  0  0  0
    6.0330   23.7440    4.5900 C   0  0  0  0  0  0  0  0  0  0  0  0
    7.1210   24.5210    4.1710 C   0  0  0  0  0  0  0  0  0  0  0  0
    3.6230   23.5150    5.4150 C   0  0  0  0  0  0  0  0  0  0  0  0
    3.8760   22.4100    6.2650 C   0  0  0  0  0  0  0  0  0  0  0  0
    2.8270   21.7060    6.8790 C   0  0  0  0  0  0  0  0  0  0  0  0
    1.4980   22.1000    6.6740 C   0  0  0  0  0  0  0  0  0  0  0  0
    1.2180   23.1920    5.8430 C   0  0  0  0  0  0  0  0  0  0  0  0
    2.2650   23.8810    5.2120 C   0  0  0  0  0  0  0  0  0  0  0  0
    8.3560   21.9030    1.4680 H   0  0  0  0  0  0  0  0  0  0  0  0
    9.6900   23.8230    1.3860 H   0  0  0  0  0  0  0  0  0  0  0  0
    8.9020   26.6510   -0.0940 H   0  0  0  0  0  0  0  0  0  0  0  0
    9.8470   25.9440    1.1830 H   0  0  0  0  0  0  0  0  0  0  0  0
    6.3500   27.7870    1.0340 H   0  0  0  0  0  0  0  0  0  0  0  0
    6.9990   29.0020    2.1190 H   0  0  0  0  0  0  0  0  0  0  0  0
    7.5040   30.0890    0.2020 H   0  0  0  0  0  0  0  0  0  0  0  0
    8.9880   29.1430    0.3190 H   0  0  0  0  0  0  0  0  0  0  0  0
    7.9590   28.9550   -1.8000 H   0  0  0  0  0  0  0  0  0  0  0  0
    5.5110   27.5550    3.9790 H   0  0  0  0  0  0  0  0  0  0  0  0
    3.6300   26.1460    4.6870 H   0  0  0  0  0  0  0  0  0  0  0  0
    6.1860   22.6810    4.7470 H   0  0  0  0  0  0  0  0  0  0  0  0
    8.1030   24.0520    4.0450 H   0  0  0  0  0  0  0  0  0  0  0  0
    4.8990   22.1160    6.4780 H   0  0  0  0  0  0  0  0  0  0  0  0
    3.0440   20.8580    7.5210 H   0  0  0  0  0  0  0  0  0  0  0  0
    0.6840   21.5610    7.1550 H   0  0  0  0  0  0  0  0  0  0  0  0
    0.1840   23.4920    5.6670 H   0  0  0  0  0  0  0  0  0  0  0  0
    2.0120   24.7030    4.5510 H   0  0  0  0  0  0  0  0  0  0  0  0
  1  2  1  0  0  0  0
  1 25  1  0  0  0  0
  2  3  1  0  0  0  0
  2 26  1  0  0  0  0
  3  5  2  0  0  0  0
  3  4  1  0  0  0  0
  4  6  1  0  0  0  0
  4 27  1  0  0  0  0
  4 28  1  0  0  0  0
  6  8  1  0  0  0  0
  6  7  1  0  0  0  0
  7 13  2  0  0  0  0
  7 12  1  0  0  0  0
  7 11  2  0  0  0  0
  8  9  1  0  0  0  0
  8 29  1  0  0  0  0
  8 30  1  0  0  0  0
  9 10  1  0  0  0  0
  9 31  1  0  0  0  0
  9 32  1  0  0  0  0
 10 33  1  0  0  0  0
 12 18  2  0  0  0  0
 12 14  1  0  0  0  0
 14 15  2  0  0  0  0
 14 34  1  0  0  0  0
 15 16  1  0  0  0  0
 15 35  1  0  0  0  0
 16 17  2  0  0  0  0
 16 19  1  0  0  0  0
 17 18  1  0  0  0  0
 17 36  1  0  0  0  0
 18 37  1  0  0  0  0
 19 24  2  0  0  0  0
 19 20  1  0  0  0  0
 20 21  2  0  0  0  0
 20 38  1  0  0  0  0
 21 22  1  0  0  0  0
 21 39  1  0  0  0  0
 22 23  2  0  0  0  0
 22 40  1  0  0  0  0
 23 24  1  0  0  0  0
 23 41  1  0  0  0  0
 24 42  1  0  0  0  0
M  END
>  <COMPND>
3n2v.pdb

>  <AUTHOR>
GENERATED BY OPEN BABEL 2.3.1

>  <MASTER>
0    0    0    0    0    0    0    0   42    0   42    0

>  <lm5_entropy_jk>
22.689748683775868

>  <number_of_rotatable_bonds>
8

>  <deltaG_kcalmol>
-10.25

>  <charge>
0

$$$$
