2OXD
 OpenBabel11252210453D

 16 17  0  0  1  0  0  0  0  0999 V2000
   21.3660    8.4010   20.2920 C   0  0  0  0  0  0  0  0  0  0  0  0
   21.7570    8.7120   18.9540 C   0  0  0  0  0  0  0  0  0  0  0  0
   22.7230    7.9150   18.2870 C   0  0  0  0  0  0  0  0  0  0  0  0
   21.9100    7.2750   20.9600 C   0  0  0  0  0  0  0  0  0  0  0  0
   24.0830    5.7870   18.5530 N   0  0  0  0  0  0  0  0  0  0  0  0
   22.8060    6.4870   20.2450 C   0  0  0  0  0  0  0  0  0  0  0  0
   23.2170    6.8060   18.9760 C   0  0  0  0  0  0  0  0  0  0  0  0
   24.7530    3.7770   19.4680 O   0  0  0  0  0  0  0  0  0  0  0  0
   24.1540    4.8300   19.5340 C   0  0  0  0  0  0  0  0  0  0  0  0
   23.4140    5.2750   20.5970 N   0  0  0  0  0  0  0  0  0  0  0  0
   21.4430    6.8140   22.7660 Br  0  0  0  0  0  0  0  0  0  0  0  0
   20.0570    9.4720   21.1960 Br  0  0  0  0  0  0  0  0  0  0  0  0
   23.3010    8.2960   16.4970 Br  0  0  0  0  0  0  0  0  0  0  0  0
   20.9470   10.1940   18.0250 Br  0  0  0  0  0  0  0  0  0  0  0  0
   24.4860    5.6890   17.6340 H   0  0  0  0  0  0  0  0  0  0  0  0
   23.1710    4.7010   21.3920 H   0  0  0  0  0  0  0  0  0  0  0  0
  1  2  2  0  0  0  0
  1  4  1  0  0  0  0
  1 12  1  0  0  0  0
  2  3  1  0  0  0  0
  2 14  1  0  0  0  0
  3  7  2  0  0  0  0
  3 13  1  0  0  0  0
  4  6  2  0  0  0  0
  4 11  1  0  0  0  0
  5  7  1  0  0  0  0
  5  9  1  0  0  0  0
  5 15  1  0  0  0  0
  6  7  1  0  0  0  0
  6 10  1  0  0  0  0
  8  9  2  0  0  0  0
  9 10  1  0  0  0  0
 10 16  1  0  0  0  0
M  END
>  <charge>
0

>  <Ki_NM>
150

>  <number_of_rotatable_bonds>
0

>  <lm5_entropy_jk>
7.2278

$$$$
