3SQQ
 OpenBabel11252210453D

 42 44  0  0  0  0  0  0  0  0999 V2000
   65.9470  154.3240  -50.5690 N   0  0  0  0  0  0  0  0  0  0  0  0
   64.5480  154.7650  -48.7930 N   0  0  0  0  0  0  0  0  0  0  0  0
   67.3100  153.3740  -52.1590 N   0  0  0  0  0  0  0  0  0  0  0  0
   61.9500  153.4340  -42.9630 N   0  0  0  0  0  0  0  0  0  0  0  0
   67.4800  152.7090  -49.8860 C   0  0  0  0  0  0  0  0  0  0  0  0
   66.9810  153.4850  -50.8820 C   0  0  0  0  0  0  0  0  0  0  0  0
   65.6640  154.1750  -49.2940 C   0  0  0  0  0  0  0  0  0  0  0  0
   63.8340  154.6310  -47.6270 C   0  0  0  0  0  0  0  0  0  0  0  0
   68.4420  151.6190  -50.1180 C   0  0  0  0  0  0  0  0  0  0  0  0
   68.6770  150.6240  -49.0070 C   0  0  0  0  0  0  0  0  0  0  0  0
   69.9550  150.0860  -48.7490 C   0  0  0  0  0  0  0  0  0  0  0  0
   70.1140  149.1030  -47.7620 C   0  0  0  0  0  0  0  0  0  0  0  0
   69.0210  148.6450  -47.0130 C   0  0  0  0  0  0  0  0  0  0  0  0
   67.7490  149.1600  -47.2760 C   0  0  0  0  0  0  0  0  0  0  0  0
   67.5750  150.1260  -48.2760 C   0  0  0  0  0  0  0  0  0  0  0  0
   63.8230  153.4390  -46.9050 C   0  0  0  0  0  0  0  0  0  0  0  0
   63.0390  153.3060  -45.7590 C   0  0  0  0  0  0  0  0  0  0  0  0
   62.2540  154.3960  -45.3480 C   0  0  0  0  0  0  0  0  0  0  0  0
   62.2480  155.6040  -46.0570 C   0  0  0  0  0  0  0  0  0  0  0  0
   63.0410  155.6940  -47.2010 C   0  0  0  0  0  0  0  0  0  0  0  0
   71.1800  150.5310  -49.5060 C   0  0  0  0  0  0  0  0  0  0  0  0
   68.9600  151.4790  -51.2120 O   0  0  0  0  0  0  0  0  0  0  0  0
   60.8020  155.4000  -43.3070 O   0  0  0  0  0  0  0  0  0  0  0  0
   60.1330  153.1840  -44.3490 O   0  0  0  0  0  0  0  0  0  0  0  0
   66.7720  153.1760  -48.3690 S   0  0  0  0  0  0  0  0  0  0  0  0
   61.1320  154.1850  -44.0350 S   0  0  0  0  0  0  0  0  0  0  0  0
   64.0810  155.3630  -49.4670 H   0  0  0  0  0  0  0  0  0  0  0  0
   67.1180  154.1350  -52.7980 H   0  0  0  0  0  0  0  0  0  0  0  0
   68.1000  152.7590  -52.3170 H   0  0  0  0  0  0  0  0  0  0  0  0
   61.3640  152.6460  -43.2600 H   0  0  0  0  0  0  0  0  0  0  0  0
   61.3580  154.0160  -42.3770 H   0  0  0  0  0  0  0  0  0  0  0  0
   71.0910  148.6690  -47.5820 H   0  0  0  0  0  0  0  0  0  0  0  0
   69.1540  147.8760  -46.2500 H   0  0  0  0  0  0  0  0  0  0  0  0
   66.8900  148.8000  -46.7100 H   0  0  0  0  0  0  0  0  0  0  0  0
   66.5720  150.4770  -48.4950 H   0  0  0  0  0  0  0  0  0  0  0  0
   64.3890  152.5830  -47.2510 H   0  0  0  0  0  0  0  0  0  0  0  0
   63.0460  152.3540  -45.2210 H   0  0  0  0  0  0  0  0  0  0  0  0
   61.6200  156.4550  -45.7670 H   0  0  0  0  0  0  0  0  0  0  0  0
   63.0120  156.6030  -47.7880 H   0  0  0  0  0  0  0  0  0  0  0  0
   71.0690  150.3050  -50.5740 H   0  0  0  0  0  0  0  0  0  0  0  0
   72.0950  150.0350  -49.1750 H   0  0  0  0  0  0  0  0  0  0  0  0
   71.3140  151.6160  -49.4230 H   0  0  0  0  0  0  0  0  0  0  0  0
  1  7  2  0  0  0  0
  2  8  1  0  0  0  0
  2 27  1  0  0  0  0
  3  6  1  0  0  0  0
  3 28  1  0  0  0  0
  3 29  1  0  0  0  0
  4 30  1  0  0  0  0
  4 31  1  0  0  0  0
  5 25  1  0  0  0  0
  6  1  1  0  0  0  0
  6  5  2  0  0  0  0
  7  2  1  0  0  0  0
  7 25  1  0  0  0  0
  8 20  2  0  0  0  0
  8 16  1  0  0  0  0
  9  5  1  0  0  0  0
  9 10  1  0  0  0  0
 10 11  2  0  0  0  0
 10 15  1  0  0  0  0
 11 12  1  0  0  0  0
 12 13  2  0  0  0  0
 12 32  1  0  0  0  0
 13 33  1  0  0  0  0
 14 13  1  0  0  0  0
 14 34  1  0  0  0  0
 15 14  2  0  0  0  0
 15 35  1  0  0  0  0
 16 17  2  0  0  0  0
 16 36  1  0  0  0  0
 17 18  1  0  0  0  0
 17 37  1  0  0  0  0
 18 26  1  0  0  0  0
 19 18  2  0  0  0  0
 19 38  1  0  0  0  0
 20 19  1  0  0  0  0
 20 39  1  0  0  0  0
 21 11  1  0  0  0  0
 21 40  1  0  0  0  0
 21 41  1  0  0  0  0
 21 42  1  0  0  0  0
 22  9  2  0  0  0  0
 24 26  2  0  0  0  0
 26 23  2  0  0  0  0
 26  4  1  0  0  0  0
M  END
>  <lm5_entropy_jk>
31.418959509749985

>  <number_of_rotatable_bonds>
5

>  <IC50_NM>
4800

>  <charge>
0

$$$$
