3SQQ
 OpenBabel11252210453D

 42 44  0  0  0  0  0  0  0  0999 V2000
   65.8420  154.4730  -50.4440 N   0  0  0  0  0  0  0  0  0  0  0  0
   64.4550  154.9350  -48.6580 N   0  0  0  0  0  0  0  0  0  0  0  0
   67.2710  153.5980  -52.0380 N   0  0  0  0  0  0  0  0  0  0  0  0
   61.8730  153.9320  -42.7800 N   0  0  0  0  0  0  0  0  0  0  0  0
   67.2850  152.7630  -49.8170 C   0  0  0  0  0  0  0  0  0  0  0  0
   66.8540  153.6140  -50.7780 C   0  0  0  0  0  0  0  0  0  0  0  0
   65.5030  154.2520  -49.1890 C   0  0  0  0  0  0  0  0  0  0  0  0
   63.7250  154.8400  -47.4950 C   0  0  0  0  0  0  0  0  0  0  0  0
   68.2340  151.6790  -50.0530 C   0  0  0  0  0  0  0  0  0  0  0  0
   68.4700  150.7400  -48.9130 C   0  0  0  0  0  0  0  0  0  0  0  0
   69.7500  150.5870  -48.3730 C   0  0  0  0  0  0  0  0  0  0  0  0
   69.9710  149.6810  -47.3280 C   0  0  0  0  0  0  0  0  0  0  0  0
   68.9120  148.9400  -46.7860 C   0  0  0  0  0  0  0  0  0  0  0  0
   67.6250  149.1060  -47.3100 C   0  0  0  0  0  0  0  0  0  0  0  0
   67.4060  149.9850  -48.3800 C   0  0  0  0  0  0  0  0  0  0  0  0
   63.5950  153.6410  -46.7900 C   0  0  0  0  0  0  0  0  0  0  0  0
   62.7900  153.5600  -45.6510 C   0  0  0  0  0  0  0  0  0  0  0  0
   62.1160  154.7140  -45.2220 C   0  0  0  0  0  0  0  0  0  0  0  0
   62.2270  155.9290  -45.9130 C   0  0  0  0  0  0  0  0  0  0  0  0
   63.0260  155.9640  -47.0570 C   0  0  0  0  0  0  0  0  0  0  0  0
   70.9060  151.4130  -48.8520 C   0  0  0  0  0  0  0  0  0  0  0  0
   68.7770  151.5230  -51.1330 O   0  0  0  0  0  0  0  0  0  0  0  0
   60.6800  155.8460  -43.2110 O   0  0  0  0  0  0  0  0  0  0  0  0
   60.0680  153.5040  -44.0640 O   0  0  0  0  0  0  0  0  0  0  0  0
   66.4640  153.0680  -48.3230 S   0  0  0  0  0  0  0  0  0  0  0  0
   61.0100  154.5940  -43.8780 S   0  0  0  0  0  0  0  0  0  0  0  0
   64.0230  155.5510  -49.3380 H   0  0  0  0  0  0  0  0  0  0  0  0
   66.9190  154.2510  -52.7270 H   0  0  0  0  0  0  0  0  0  0  0  0
   67.9760  152.9030  -52.2480 H   0  0  0  0  0  0  0  0  0  0  0  0
   61.1200  153.2480  -42.8580 H   0  0  0  0  0  0  0  0  0  0  0  0
   61.4580  154.7150  -42.2760 H   0  0  0  0  0  0  0  0  0  0  0  0
   70.9690  149.5500  -46.9250 H   0  0  0  0  0  0  0  0  0  0  0  0
   69.0850  148.2430  -45.9650 H   0  0  0  0  0  0  0  0  0  0  0  0
   66.7970  148.5470  -46.8830 H   0  0  0  0  0  0  0  0  0  0  0  0
   66.4080  150.0860  -48.7950 H   0  0  0  0  0  0  0  0  0  0  0  0
   64.0840  152.7420  -47.1410 H   0  0  0  0  0  0  0  0  0  0  0  0
   62.6940  152.6010  -45.1280 H   0  0  0  0  0  0  0  0  0  0  0  0
   61.6850  156.8330  -45.6080 H   0  0  0  0  0  0  0  0  0  0  0  0
   63.0890  156.8820  -47.6270 H   0  0  0  0  0  0  0  0  0  0  0  0
   70.5860  152.3700  -49.2810 H   0  0  0  0  0  0  0  0  0  0  0  0
   71.4720  150.8790  -49.6240 H   0  0  0  0  0  0  0  0  0  0  0  0
   71.5380  151.6490  -48.0010 H   0  0  0  0  0  0  0  0  0  0  0  0
  1  7  2  0  0  0  0
  2  8  1  0  0  0  0
  2 27  1  0  0  0  0
  3  6  1  0  0  0  0
  3 28  1  0  0  0  0
  3 29  1  0  0  0  0
  4 30  1  0  0  0  0
  4 31  1  0  0  0  0
  5 25  1  0  0  0  0
  6  1  1  0  0  0  0
  6  5  2  0  0  0  0
  7  2  1  0  0  0  0
  7 25  1  0  0  0  0
  8 20  2  0  0  0  0
  8 16  1  0  0  0  0
  9  5  1  0  0  0  0
  9 10  1  0  0  0  0
 10 11  2  0  0  0  0
 10 15  1  0  0  0  0
 11 12  1  0  0  0  0
 12 13  2  0  0  0  0
 12 32  1  0  0  0  0
 13 33  1  0  0  0  0
 14 13  1  0  0  0  0
 14 34  1  0  0  0  0
 15 14  2  0  0  0  0
 15 35  1  0  0  0  0
 16 17  2  0  0  0  0
 16 36  1  0  0  0  0
 17 18  1  0  0  0  0
 17 37  1  0  0  0  0
 18 26  1  0  0  0  0
 19 18  2  0  0  0  0
 19 38  1  0  0  0  0
 20 19  1  0  0  0  0
 20 39  1  0  0  0  0
 21 11  1  0  0  0  0
 21 40  1  0  0  0  0
 21 41  1  0  0  0  0
 21 42  1  0  0  0  0
 22  9  2  0  0  0  0
 24 26  2  0  0  0  0
 26 23  2  0  0  0  0
 26  4  1  0  0  0  0
M  END
>  <lm5_entropy_jk>
31.418959509749985

>  <number_of_rotatable_bonds>
5

>  <IC50_NM>
4800

>  <charge>
0

$$$$
