3KXH
  Avogadro

 28 29  0  0  0  0  0  0  0  0999 V2000
   22.0410    7.3190   20.6900 C   0  0  0  0  0  0  0  0  0  0  0  0
   22.9350    6.7080   19.8040 C   0  0  0  0  0  0  0  0  0  0  0  0
   23.2410    7.2650   18.5950 C   0  0  0  0  0  0  0  0  0  0  0  0
   22.5580    8.4010   18.1130 C   0  0  0  0  0  0  0  0  0  0  0  0
   21.5730    8.9840   18.9490 C   0  0  0  0  0  0  0  0  0  0  0  0
   21.3490    8.4710   20.2530 C   0  0  0  0  0  0  0  0  0  0  0  0
   23.5310    5.5160   20.0000 N   0  0  0  0  0  0  0  0  0  0  0  0
   24.1510    6.4470   17.9580 N   0  0  0  0  0  0  0  0  0  0  0  0
   24.1900    5.3350   18.8430 C   0  0  0  0  0  0  0  0  0  0  0  0
   24.9560    4.1870   18.5840 N   0  0  0  0  0  0  0  0  0  0  0  0
   25.2720    3.1960   19.6380 C   0  0  0  0  0  0  0  0  0  0  0  0
   25.1830    3.6470   17.2330 C   0  0  0  0  0  0  0  0  0  0  0  0
   25.1150    6.8130   16.8570 C   0  0  0  0  0  0  0  0  0  0  0  0
   24.6740    6.5310   15.4300 C   0  0  0  0  0  0  0  0  0  0  0  0
   23.5700    6.1200   15.2450 O   0  0  0  0  0  0  0  0  0  0  0  0
   25.4470    6.7510   14.5290 O   0  5  0  0  0  0  0  0  0  0  0  0
   22.8380    9.0990   16.3570 Br  0  0  0  0  0  0  0  0  0  0  0  0
   20.4830   10.4260   18.2720 Br  0  0  0  0  0  0  0  0  0  0  0  0
   20.0550    9.2910   21.4090 Br  0  0  0  0  0  0  0  0  0  0  0  0
   21.7540    6.5570   22.4310 Br  0  0  0  0  0  0  0  0  0  0  0  0
   26.1870    2.6370   19.4040 H   0  0  0  0  0  0  0  0  0  0  0  0
   24.5100    4.1170   16.5040 H   0  0  0  0  0  0  0  0  0  0  0  0
   24.9660    2.5730   17.1910 H   0  0  0  0  0  0  0  0  0  0  0  0
   26.2160    3.7970   16.9060 H   0  0  0  0  0  0  0  0  0  0  0  0
   26.0320    6.2460   16.9890 H   0  0  0  0  0  0  0  0  0  0  0  0
   24.4490    2.4760   19.7500 H   0  0  0  0  0  0  0  0  0  0  0  0
   25.3560    7.8740   16.9030 H   0  0  0  0  0  0  0  0  0  0  0  0
   25.4100    3.6890   20.6090 H   0  0  0  0  0  0  0  0  0  0  0  0
  1  2  2  0  0  0  0
  1  6  1  0  0  0  0
  1 20  1  0  0  0  0
  2  3  1  0  0  0  0
  2  7  1  0  0  0  0
  3  4  2  0  0  0  0
  3  8  1  0  0  0  0
  4  5  1  0  0  0  0
  4 17  1  0  0  0  0
  5  6  2  0  0  0  0
  5 18  1  0  0  0  0
  6 19  1  0  0  0  0
  7  9  2  0  0  0  0
  8  9  1  0  0  0  0
  8 13  1  0  0  0  0
  9 10  1  0  0  0  0
 10 11  1  0  0  0  0
 10 12  1  0  0  0  0
 11 26  1  0  0  0  0
 11 28  1  0  0  0  0
 11 21  1  0  0  0  0
 12 22  1  0  0  0  0
 12 23  1  0  0  0  0
 12 24  1  0  0  0  0
 13 14  1  0  0  0  0
 13 25  1  0  0  0  0
 13 27  1  0  0  0  0
 14 15  2  0  0  0  0
 14 16  1  0  0  0  0
M  CHG  1  16  -1
M  END
>  <Ki_NM>
250

>  <charge>
-1

>  <number_of_rotatable_bonds>
3

>  <lm5_entropy_jk>
35.3363699446558

$$$$
