3QTZ
 OpenBabel11252210453D

 39 41  0  0  0  0  0  0  0  0999 V2000
   65.9700  154.3160  -50.4560 N   0  0  0  0  0  0  0  0  0  0  0  0
   64.5660  154.7820  -48.6870 N   0  0  0  0  0  0  0  0  0  0  0  0
   67.4450  153.4710  -52.0200 N   0  0  0  0  0  0  0  0  0  0  0  0
   61.9080  153.7650  -42.8570 N   0  0  0  0  0  0  0  0  0  0  0  0
   67.5380  152.7450  -49.7570 C   0  0  0  0  0  0  0  0  0  0  0  0
   67.0320  153.5070  -50.7590 C   0  0  0  0  0  0  0  0  0  0  0  0
   65.6430  154.1290  -49.1930 C   0  0  0  0  0  0  0  0  0  0  0  0
   63.8400  154.6970  -47.5230 C   0  0  0  0  0  0  0  0  0  0  0  0
   68.6470  151.8030  -49.9140 C   0  0  0  0  0  0  0  0  0  0  0  0
   68.9320  150.8640  -48.7600 C   0  0  0  0  0  0  0  0  0  0  0  0
   67.9120  150.0670  -48.1930 C   0  0  0  0  0  0  0  0  0  0  0  0
   68.1880  149.1820  -47.1360 C   0  0  0  0  0  0  0  0  0  0  0  0
   69.4970  149.0840  -46.6400 C   0  0  0  0  0  0  0  0  0  0  0  0
   70.5160  149.8580  -47.2020 C   0  0  0  0  0  0  0  0  0  0  0  0
   70.2430  150.7380  -48.2570 C   0  0  0  0  0  0  0  0  0  0  0  0
   63.1130  155.8110  -47.1150 C   0  0  0  0  0  0  0  0  0  0  0  0
   62.3020  155.7810  -45.9810 C   0  0  0  0  0  0  0  0  0  0  0  0
   62.2180  154.5780  -45.2700 C   0  0  0  0  0  0  0  0  0  0  0  0
   62.9270  153.4340  -45.6620 C   0  0  0  0  0  0  0  0  0  0  0  0
   63.7410  153.5130  -46.7930 C   0  0  0  0  0  0  0  0  0  0  0  0
   69.3060  151.7650  -50.9390 O   0  0  0  0  0  0  0  0  0  0  0  0
   60.1310  153.3850  -44.1930 O   0  0  0  0  0  0  0  0  0  0  0  0
   60.7590  155.7020  -43.2860 O   0  0  0  0  0  0  0  0  0  0  0  0
   66.6580  153.0200  -48.2880 S   0  0  0  0  0  0  0  0  0  0  0  0
   61.0850  154.4560  -43.9620 S   0  0  0  0  0  0  0  0  0  0  0  0
   71.7680  149.7630  -46.7160 F   0  0  0  0  0  0  0  0  0  0  0  0
   64.1120  155.3710  -49.3750 H   0  0  0  0  0  0  0  0  0  0  0  0
   67.1320  154.1830  -52.6710 H   0  0  0  0  0  0  0  0  0  0  0  0
   68.3040  152.9580  -52.1670 H   0  0  0  0  0  0  0  0  0  0  0  0
   61.1490  153.0920  -42.9670 H   0  0  0  0  0  0  0  0  0  0  0  0
   61.4880  154.5460  -42.3530 H   0  0  0  0  0  0  0  0  0  0  0  0
   66.8970  150.1340  -48.5770 H   0  0  0  0  0  0  0  0  0  0  0  0
   67.3900  148.5770  -46.7010 H   0  0  0  0  0  0  0  0  0  0  0  0
   69.7270  148.4020  -45.8230 H   0  0  0  0  0  0  0  0  0  0  0  0
   71.0420  151.3350  -48.6860 H   0  0  0  0  0  0  0  0  0  0  0  0
   63.1530  156.7160  -47.7080 H   0  0  0  0  0  0  0  0  0  0  0  0
   61.7280  156.6740  -45.7040 H   0  0  0  0  0  0  0  0  0  0  0  0
   62.8490  152.4840  -45.1190 H   0  0  0  0  0  0  0  0  0  0  0  0
   64.2610  152.6220  -47.1200 H   0  0  0  0  0  0  0  0  0  0  0  0
  1  7  2  0  0  0  0
  2  8  1  0  0  0  0
  2 27  1  0  0  0  0
  3  6  1  0  0  0  0
  3 28  1  0  0  0  0
  3 29  1  0  0  0  0
  4 30  1  0  0  0  0
  4 31  1  0  0  0  0
  5 24  1  0  0  0  0
  6  1  1  0  0  0  0
  6  5  2  0  0  0  0
  7  2  1  0  0  0  0
  7 24  1  0  0  0  0
  8 16  2  0  0  0  0
  8 20  1  0  0  0  0
  9  5  1  0  0  0  0
  9 10  1  0  0  0  0
 10 15  2  0  0  0  0
 10 11  1  0  0  0  0
 11 12  2  0  0  0  0
 11 32  1  0  0  0  0
 12 13  1  0  0  0  0
 12 33  1  0  0  0  0
 13 34  1  0  0  0  0
 14 26  1  0  0  0  0
 14 13  2  0  0  0  0
 15 14  1  0  0  0  0
 15 35  1  0  0  0  0
 16 17  1  0  0  0  0
 16 36  1  0  0  0  0
 17 18  2  0  0  0  0
 17 37  1  0  0  0  0
 18 25  1  0  0  0  0
 19 18  1  0  0  0  0
 19 38  1  0  0  0  0
 20 19  2  0  0  0  0
 20 39  1  0  0  0  0
 21  9  2  0  0  0  0
 22 25  2  0  0  0  0
 25 23  2  0  0  0  0
 25  4  1  0  0  0  0
M  END
>  <lm5_entropy_jk>
22.397995528352578

>  <number_of_rotatable_bonds>
5

>  <IC50_NM>
50

>  <charge>
0

$$$$
