3QTZ
 OpenBabel11252210453D

 39 41  0  0  0  0  0  0  0  0999 V2000
   65.9470  154.2840  -50.5750 N   0  0  0  0  0  0  0  0  0  0  0  0
   64.5240  154.7240  -48.8150 N   0  0  0  0  0  0  0  0  0  0  0  0
   67.4020  153.4040  -52.1300 N   0  0  0  0  0  0  0  0  0  0  0  0
   61.9380  153.4850  -42.9950 N   0  0  0  0  0  0  0  0  0  0  0  0
   67.5130  152.7170  -49.8600 C   0  0  0  0  0  0  0  0  0  0  0  0
   67.0090  153.4740  -50.8670 C   0  0  0  0  0  0  0  0  0  0  0  0
   65.6330  154.1160  -49.3070 C   0  0  0  0  0  0  0  0  0  0  0  0
   63.8050  154.6050  -47.6530 C   0  0  0  0  0  0  0  0  0  0  0  0
   68.5870  151.7320  -50.0410 C   0  0  0  0  0  0  0  0  0  0  0  0
   68.8990  150.7880  -48.8970 C   0  0  0  0  0  0  0  0  0  0  0  0
   67.8770  150.1220  -48.1830 C   0  0  0  0  0  0  0  0  0  0  0  0
   68.1850  149.2210  -47.1480 C   0  0  0  0  0  0  0  0  0  0  0  0
   69.5290  148.9650  -46.8310 C   0  0  0  0  0  0  0  0  0  0  0  0
   70.5490  149.6010  -47.5480 C   0  0  0  0  0  0  0  0  0  0  0  0
   70.2420  150.4960  -48.5770 C   0  0  0  0  0  0  0  0  0  0  0  0
   63.0430  155.6870  -47.2230 C   0  0  0  0  0  0  0  0  0  0  0  0
   62.2520  155.6170  -46.0790 C   0  0  0  0  0  0  0  0  0  0  0  0
   62.2320  154.4080  -45.3770 C   0  0  0  0  0  0  0  0  0  0  0  0
   62.9810  153.2990  -45.7890 C   0  0  0  0  0  0  0  0  0  0  0  0
   63.7620  153.4120  -46.9370 C   0  0  0  0  0  0  0  0  0  0  0  0
   69.2020  151.6580  -51.0920 O   0  0  0  0  0  0  0  0  0  0  0  0
   60.1210  153.2150  -44.3600 O   0  0  0  0  0  0  0  0  0  0  0  0
   60.8000  155.4460  -43.3470 O   0  0  0  0  0  0  0  0  0  0  0  0
   66.7080  153.0930  -48.3690 S   0  0  0  0  0  0  0  0  0  0  0  0
   61.1170  154.2240  -44.0680 S   0  0  0  0  0  0  0  0  0  0  0  0
   71.8380  149.3550  -47.2410 F   0  0  0  0  0  0  0  0  0  0  0  0
   64.0730  155.3370  -49.4850 H   0  0  0  0  0  0  0  0  0  0  0  0
   67.1540  154.1420  -52.7790 H   0  0  0  0  0  0  0  0  0  0  0  0
   68.2470  152.8620  -52.2650 H   0  0  0  0  0  0  0  0  0  0  0  0
   61.3260  152.7090  -43.2680 H   0  0  0  0  0  0  0  0  0  0  0  0
   61.3710  154.1030  -42.4200 H   0  0  0  0  0  0  0  0  0  0  0  0
   66.8350  150.2950  -48.4420 H   0  0  0  0  0  0  0  0  0  0  0  0
   67.3850  148.7210  -46.5970 H   0  0  0  0  0  0  0  0  0  0  0  0
   69.7820  148.2640  -46.0390 H   0  0  0  0  0  0  0  0  0  0  0  0
   71.0470  150.9660  -49.1370 H   0  0  0  0  0  0  0  0  0  0  0  0
   63.0370  156.5960  -47.8070 H   0  0  0  0  0  0  0  0  0  0  0  0
   61.6450  156.4830  -45.7850 H   0  0  0  0  0  0  0  0  0  0  0  0
   62.9610  152.3470  -45.2530 H   0  0  0  0  0  0  0  0  0  0  0  0
   64.3010  152.5410  -47.2870 H   0  0  0  0  0  0  0  0  0  0  0  0
  1  7  2  0  0  0  0
  2  8  1  0  0  0  0
  2 27  1  0  0  0  0
  3  6  1  0  0  0  0
  3 28  1  0  0  0  0
  3 29  1  0  0  0  0
  4 30  1  0  0  0  0
  4 31  1  0  0  0  0
  5 24  1  0  0  0  0
  6  1  1  0  0  0  0
  6  5  2  0  0  0  0
  7  2  1  0  0  0  0
  7 24  1  0  0  0  0
  8 16  2  0  0  0  0
  8 20  1  0  0  0  0
  9  5  1  0  0  0  0
  9 10  1  0  0  0  0
 10 15  2  0  0  0  0
 10 11  1  0  0  0  0
 11 12  2  0  0  0  0
 11 32  1  0  0  0  0
 12 13  1  0  0  0  0
 12 33  1  0  0  0  0
 13 34  1  0  0  0  0
 14 26  1  0  0  0  0
 14 13  2  0  0  0  0
 15 14  1  0  0  0  0
 15 35  1  0  0  0  0
 16 17  1  0  0  0  0
 16 36  1  0  0  0  0
 17 18  2  0  0  0  0
 17 37  1  0  0  0  0
 18 25  1  0  0  0  0
 19 18  1  0  0  0  0
 19 38  1  0  0  0  0
 20 19  2  0  0  0  0
 20 39  1  0  0  0  0
 21  9  2  0  0  0  0
 22 25  2  0  0  0  0
 25 23  2  0  0  0  0
 25  4  1  0  0  0  0
M  END
>  <lm5_entropy_jk>
22.397995528352578

>  <number_of_rotatable_bonds>
5

>  <IC50_NM>
50

>  <charge>
0

$$$$
