3RMF
 OpenBabel11252210453D

 45 48  0  0  0  0  0  0  0  0999 V2000
   65.8530  154.3560  -50.6480 N   0  0  0  0  0  0  0  0  0  0  0  0
   64.5480  154.8400  -48.8150 N   0  0  0  0  0  0  0  0  0  0  0  0
   67.0860  153.2970  -52.2630 N   0  0  0  0  0  0  0  0  0  0  0  0
   61.9920  153.3620  -42.9760 N   0  0  0  0  0  0  0  0  0  0  0  0
   67.4630  152.8120  -49.9750 C   0  0  0  0  0  0  0  0  0  0  0  0
   66.8760  153.5120  -50.9780 C   0  0  0  0  0  0  0  0  0  0  0  0
   65.6580  154.2740  -49.3520 C   0  0  0  0  0  0  0  0  0  0  0  0
   63.8580  154.6780  -47.6380 C   0  0  0  0  0  0  0  0  0  0  0  0
   68.4410  151.7330  -50.2100 C   0  0  0  0  0  0  0  0  0  0  0  0
   68.8150  150.8000  -49.0770 C   0  0  0  0  0  0  0  0  0  0  0  0
   70.0790  150.1710  -49.0910 C   0  0  0  0  0  0  0  0  0  0  0  0
   70.4430  149.2750  -48.0690 C   0  0  0  0  0  0  0  0  0  0  0  0
   69.5660  149.0280  -46.9990 C   0  0  0  0  0  0  0  0  0  0  0  0
   68.2930  149.6270  -46.9910 C   0  0  0  0  0  0  0  0  0  0  0  0
   67.9060  150.4590  -48.0500 C   0  0  0  0  0  0  0  0  0  0  0  0
   63.0240  155.7070  -47.2070 C   0  0  0  0  0  0  0  0  0  0  0  0
   62.2390  155.5820  -46.0600 C   0  0  0  0  0  0  0  0  0  0  0  0
   62.2920  154.3730  -45.3540 C   0  0  0  0  0  0  0  0  0  0  0  0
   63.1230  153.3160  -45.7680 C   0  0  0  0  0  0  0  0  0  0  0  0
   63.9020  153.4850  -46.9160 C   0  0  0  0  0  0  0  0  0  0  0  0
   69.9450  148.1820  -45.9430 C   0  0  0  0  0  0  0  0  0  0  0  0
   69.0760  147.9780  -44.8560 C   0  0  0  0  0  0  0  0  0  0  0  0
   67.8100  148.5840  -44.8450 C   0  0  0  0  0  0  0  0  0  0  0  0
   67.4100  149.3920  -45.9220 C   0  0  0  0  0  0  0  0  0  0  0  0
   68.9280  151.5690  -51.3160 O   0  0  0  0  0  0  0  0  0  0  0  0
   60.1680  153.1440  -44.3760 O   0  0  0  0  0  0  0  0  0  0  0  0
   60.8420  155.3370  -43.2960 O   0  0  0  0  0  0  0  0  0  0  0  0
   66.8680  153.3900  -48.4470 S   0  0  0  0  0  0  0  0  0  0  0  0
   61.1730  154.1300  -44.0380 S   0  0  0  0  0  0  0  0  0  0  0  0
   64.0360  155.4040  -49.4850 H   0  0  0  0  0  0  0  0  0  0  0  0
   66.9350  154.0730  -52.8950 H   0  0  0  0  0  0  0  0  0  0  0  0
   67.8970  152.7100  -52.4180 H   0  0  0  0  0  0  0  0  0  0  0  0
   61.4450  152.5570  -43.3050 H   0  0  0  0  0  0  0  0  0  0  0  0
   61.3670  153.8970  -42.3810 H   0  0  0  0  0  0  0  0  0  0  0  0
   70.7740  150.3760  -49.9070 H   0  0  0  0  0  0  0  0  0  0  0  0
   71.4070  148.7770  -48.1060 H   0  0  0  0  0  0  0  0  0  0  0  0
   66.8870  150.8300  -48.0680 H   0  0  0  0  0  0  0  0  0  0  0  0
   62.9550  156.6150  -47.7900 H   0  0  0  0  0  0  0  0  0  0  0  0
   61.5770  156.4060  -45.7680 H   0  0  0  0  0  0  0  0  0  0  0  0
   63.1660  152.3630  -45.2330 H   0  0  0  0  0  0  0  0  0  0  0  0
   64.5060  152.6570  -47.2650 H   0  0  0  0  0  0  0  0  0  0  0  0
   70.9020  147.6700  -45.9720 H   0  0  0  0  0  0  0  0  0  0  0  0
   69.3670  147.3220  -44.0350 H   0  0  0  0  0  0  0  0  0  0  0  0
   67.1300  148.4120  -44.0110 H   0  0  0  0  0  0  0  0  0  0  0  0
   66.4190  149.8430  -45.9180 H   0  0  0  0  0  0  0  0  0  0  0  0
  1  7  2  0  0  0  0
  2  8  1  0  0  0  0
  2 30  1  0  0  0  0
  3  6  1  0  0  0  0
  3 31  1  0  0  0  0
  3 32  1  0  0  0  0
  4 33  1  0  0  0  0
  4 34  1  0  0  0  0
  5 28  1  0  0  0  0
  6  1  1  0  0  0  0
  6  5  2  0  0  0  0
  7  2  1  0  0  0  0
  7 28  1  0  0  0  0
  8 16  2  0  0  0  0
  8 20  1  0  0  0  0
  9  5  1  0  0  0  0
  9 10  1  0  0  0  0
 10 11  2  0  0  0  0
 10 15  1  0  0  0  0
 11 12  1  0  0  0  0
 11 35  1  0  0  0  0
 12 13  2  0  0  0  0
 12 36  1  0  0  0  0
 13 21  1  0  0  0  0
 14 13  1  0  0  0  0
 14 24  1  0  0  0  0
 15 14  2  0  0  0  0
 15 37  1  0  0  0  0
 16 17  1  0  0  0  0
 16 38  1  0  0  0  0
 17 18  2  0  0  0  0
 17 39  1  0  0  0  0
 18 29  1  0  0  0  0
 19 18  1  0  0  0  0
 19 40  1  0  0  0  0
 20 19  2  0  0  0  0
 20 41  1  0  0  0  0
 21 22  2  0  0  0  0
 21 42  1  0  0  0  0
 22 43  1  0  0  0  0
 23 22  1  0  0  0  0
 23 44  1  0  0  0  0
 24 23  2  0  0  0  0
 24 45  1  0  0  0  0
 25  9  2  0  0  0  0
 26 29  2  0  0  0  0
 29 27  2  0  0  0  0
 29  4  1  0  0  0  0
M  END
>  <lm5_entropy_jk>
22.397995528352578

>  <number_of_rotatable_bonds>
5

>  <IC50_NM>
82000

>  <charge>
0

$$$$
