3QTU
 OpenBabel11252210453D

 44 46  0  0  0  0  0  0  0  0999 V2000
   65.8040  154.4930  -50.6100 N   0  0  0  0  0  0  0  0  0  0  0  0
   64.5630  155.0490  -48.7480 N   0  0  0  0  0  0  0  0  0  0  0  0
   67.0510  153.4670  -52.2500 N   0  0  0  0  0  0  0  0  0  0  0  0
   61.9440  153.6520  -42.9490 N   0  0  0  0  0  0  0  0  0  0  0  0
   70.2450  147.2740  -45.5600 N   0  0  0  0  0  0  0  0  0  0  0  0
   67.3740  152.8970  -49.9740 C   0  0  0  0  0  0  0  0  0  0  0  0
   66.8020  153.6270  -50.9620 C   0  0  0  0  0  0  0  0  0  0  0  0
   65.6060  154.3910  -49.3130 C   0  0  0  0  0  0  0  0  0  0  0  0
   63.8480  154.8870  -47.5850 C   0  0  0  0  0  0  0  0  0  0  0  0
   68.3730  151.8470  -50.2050 C   0  0  0  0  0  0  0  0  0  0  0  0
   68.7700  150.9760  -49.0320 C   0  0  0  0  0  0  0  0  0  0  0  0
   63.1060  155.9630  -47.1030 C   0  0  0  0  0  0  0  0  0  0  0  0
   62.3020  155.8470  -45.9680 C   0  0  0  0  0  0  0  0  0  0  0  0
   62.2330  154.5990  -45.3320 C   0  0  0  0  0  0  0  0  0  0  0  0
   62.9560  153.4920  -45.8050 C   0  0  0  0  0  0  0  0  0  0  0  0
   63.7640  153.6540  -46.9350 C   0  0  0  0  0  0  0  0  0  0  0  0
   70.1290  150.7050  -48.8250 C   0  0  0  0  0  0  0  0  0  0  0  0
   70.5480  149.9770  -47.7100 C   0  0  0  0  0  0  0  0  0  0  0  0
   69.6060  149.4810  -46.7880 C   0  0  0  0  0  0  0  0  0  0  0  0
   68.2290  149.6810  -47.0140 C   0  0  0  0  0  0  0  0  0  0  0  0
   67.8260  150.4160  -48.1400 C   0  0  0  0  0  0  0  0  0  0  0  0
   68.8740  151.6850  -51.3050 O   0  0  0  0  0  0  0  0  0  0  0  0
   60.1750  153.2970  -44.3080 O   0  0  0  0  0  0  0  0  0  0  0  0
   60.7410  155.5780  -43.2830 O   0  0  0  0  0  0  0  0  0  0  0  0
   71.5990  149.0780  -45.0950 O   0  0  0  0  0  0  0  0  0  0  0  0
   69.1820  148.9320  -44.2130 O   0  0  0  0  0  0  0  0  0  0  0  0
   66.7190  153.3580  -48.4370 S   0  0  0  0  0  0  0  0  0  0  0  0
   61.1030  154.3770  -44.0210 S   0  0  0  0  0  0  0  0  0  0  0  0
   70.1760  148.8030  -45.2690 S   0  0  0  0  0  0  0  0  0  0  0  0
   64.0710  155.6270  -49.4210 H   0  0  0  0  0  0  0  0  0  0  0  0
   66.8400  154.2330  -52.8770 H   0  0  0  0  0  0  0  0  0  0  0  0
   67.8610  152.8850  -52.4240 H   0  0  0  0  0  0  0  0  0  0  0  0
   61.2120  152.9560  -43.0920 H   0  0  0  0  0  0  0  0  0  0  0  0
   61.4980  154.3860  -42.4010 H   0  0  0  0  0  0  0  0  0  0  0  0
   71.1480  147.4550  -46.0020 H   0  0  0  0  0  0  0  0  0  0  0  0
   69.5770  147.3080  -46.3220 H   0  0  0  0  0  0  0  0  0  0  0  0
   63.1330  156.9050  -47.6350 H   0  0  0  0  0  0  0  0  0  0  0  0
   61.7200  156.7140  -45.6320 H   0  0  0  0  0  0  0  0  0  0  0  0
   62.8930  152.5090  -45.3260 H   0  0  0  0  0  0  0  0  0  0  0  0
   64.2930  152.7930  -47.3260 H   0  0  0  0  0  0  0  0  0  0  0  0
   70.8620  151.1040  -49.5250 H   0  0  0  0  0  0  0  0  0  0  0  0
   71.6140  149.8440  -47.5560 H   0  0  0  0  0  0  0  0  0  0  0  0
   67.4670  149.3190  -46.3150 H   0  0  0  0  0  0  0  0  0  0  0  0
   66.7660  150.5830  -48.3020 H   0  0  0  0  0  0  0  0  0  0  0  0
  1  8  2  0  0  0  0
  2  9  1  0  0  0  0
  2 30  1  0  0  0  0
  3  7  1  0  0  0  0
  3 31  1  0  0  0  0
  3 32  1  0  0  0  0
  4 33  1  0  0  0  0
  4 34  1  0  0  0  0
  5 29  1  0  0  0  0
  5 35  1  0  0  0  0
  5 36  1  0  0  0  0
  6 27  1  0  0  0  0
  7  1  1  0  0  0  0
  7  6  2  0  0  0  0
  8  2  1  0  0  0  0
  8 27  1  0  0  0  0
  9 12  2  0  0  0  0
  9 16  1  0  0  0  0
 10  6  1  0  0  0  0
 10 11  1  0  0  0  0
 11 17  2  0  0  0  0
 11 21  1  0  0  0  0
 12 13  1  0  0  0  0
 12 37  1  0  0  0  0
 13 14  2  0  0  0  0
 13 38  1  0  0  0  0
 14 28  1  0  0  0  0
 15 14  1  0  0  0  0
 15 39  1  0  0  0  0
 16 15  2  0  0  0  0
 16 40  1  0  0  0  0
 17 18  1  0  0  0  0
 17 41  1  0  0  0  0
 18 19  2  0  0  0  0
 18 42  1  0  0  0  0
 19 29  1  0  0  0  0
 20 19  1  0  0  0  0
 20 43  1  0  0  0  0
 21 20  2  0  0  0  0
 21 44  1  0  0  0  0
 22 10  2  0  0  0  0
 23 28  2  0  0  0  0
 28 24  2  0  0  0  0
 28  4  1  0  0  0  0
 29 25  2  0  0  0  0
 29 26  2  0  0  0  0
M  END
>  <lm5_entropy_jk>
23.933690845995674

>  <number_of_rotatable_bonds>
6

>  <IC50_NM>
70

>  <charge>
0

$$$$
