3QTU
 OpenBabel11252210453D

 44 46  0  0  0  0  0  0  0  0999 V2000
   65.8500  154.4980  -50.6000 N   0  0  0  0  0  0  0  0  0  0  0  0
   64.5980  154.9780  -48.6440 N   0  0  0  0  0  0  0  0  0  0  0  0
   67.3470  153.6300  -52.2790 N   0  0  0  0  0  0  0  0  0  0  0  0
   62.2630  152.7130  -42.7460 N   0  0  0  0  0  0  0  0  0  0  0  0
   70.2600  147.1830  -45.4730 N   0  0  0  0  0  0  0  0  0  0  0  0
   67.5060  152.8480  -49.9910 C   0  0  0  0  0  0  0  0  0  0  0  0
   66.9310  153.6620  -50.9960 C   0  0  0  0  0  0  0  0  0  0  0  0
   65.6030  154.2850  -49.2870 C   0  0  0  0  0  0  0  0  0  0  0  0
   63.9270  154.6130  -47.4350 C   0  0  0  0  0  0  0  0  0  0  0  0
   68.4400  151.7990  -50.2260 C   0  0  0  0  0  0  0  0  0  0  0  0
   68.8360  150.9680  -49.0390 C   0  0  0  0  0  0  0  0  0  0  0  0
   63.0240  155.5790  -46.9350 C   0  0  0  0  0  0  0  0  0  0  0  0
   62.2940  155.3160  -45.7810 C   0  0  0  0  0  0  0  0  0  0  0  0
   62.4490  154.0940  -45.1090 C   0  0  0  0  0  0  0  0  0  0  0  0
   63.3590  153.1510  -45.5980 C   0  0  0  0  0  0  0  0  0  0  0  0
   64.0880  153.3920  -46.7660 C   0  0  0  0  0  0  0  0  0  0  0  0
   70.2000  150.8880  -48.7380 C   0  0  0  0  0  0  0  0  0  0  0  0
   70.5990  150.1670  -47.6140 C   0  0  0  0  0  0  0  0  0  0  0  0
   69.6560  149.5570  -46.7830 C   0  0  0  0  0  0  0  0  0  0  0  0
   68.3030  149.5800  -47.1270 C   0  0  0  0  0  0  0  0  0  0  0  0
   67.8910  150.2890  -48.2610 C   0  0  0  0  0  0  0  0  0  0  0  0
   68.9300  151.5690  -51.3280 O   0  0  0  0  0  0  0  0  0  0  0  0
   60.2580  153.0080  -44.3990 O   0  0  0  0  0  0  0  0  0  0  0  0
   61.0460  154.9030  -43.0010 O   0  0  0  0  0  0  0  0  0  0  0  0
   71.6040  149.2320  -45.0500 O   0  0  0  0  0  0  0  0  0  0  0  0
   69.2490  149.1980  -44.2580 O   0  0  0  0  0  0  0  0  0  0  0  0
   66.7620  153.1330  -48.4620 S   0  0  0  0  0  0  0  0  0  0  0  0
   61.3900  153.7190  -43.8000 S   0  0  0  0  0  0  0  0  0  0  0  0
   70.2070  148.8600  -45.3020 S   0  0  0  0  0  0  0  0  0  0  0  0
   64.0060  155.6000  -49.2600 H   0  0  0  0  0  0  0  0  0  0  0  0
   66.9200  154.2260  -53.0090 H   0  0  0  0  0  0  0  0  0  0  0  0
   68.1140  152.9900  -52.5470 H   0  0  0  0  0  0  0  0  0  0  0  0
   62.3280  151.6940  -43.0240 H   0  0  0  0  0  0  0  0  0  0  0  0
   62.1580  152.8160  -41.7280 H   0  0  0  0  0  0  0  0  0  0  0  0
   71.1110  146.8160  -45.9560 H   0  0  0  0  0  0  0  0  0  0  0  0
   69.4030  146.6670  -45.7720 H   0  0  0  0  0  0  0  0  0  0  0  0
   62.8750  156.5230  -47.4620 H   0  0  0  0  0  0  0  0  0  0  0  0
   61.5960  156.0840  -45.4250 H   0  0  0  0  0  0  0  0  0  0  0  0
   63.5240  152.1970  -45.0820 H   0  0  0  0  0  0  0  0  0  0  0  0
   64.7440  152.6020  -47.1340 H   0  0  0  0  0  0  0  0  0  0  0  0
   70.9380  151.3780  -49.3800 H   0  0  0  0  0  0  0  0  0  0  0  0
   71.6560  150.0710  -47.3890 H   0  0  0  0  0  0  0  0  0  0  0  0
   67.5490  149.0550  -46.5290 H   0  0  0  0  0  0  0  0  0  0  0  0
   66.8300  150.2990  -48.5150 H   0  0  0  0  0  0  0  0  0  0  0  0
  1  8  2  0  0  0  0
  2  9  1  0  0  0  0
  2 30  1  0  0  0  0
  3  7  1  0  0  0  0
  3 31  1  0  0  0  0
  3 32  1  0  0  0  0
  4 33  1  0  0  0  0
  4 34  1  0  0  0  0
  5 29  1  0  0  0  0
  5 35  1  0  0  0  0
  5 36  1  0  0  0  0
  6 27  1  0  0  0  0
  7  1  1  0  0  0  0
  7  6  2  0  0  0  0
  8  2  1  0  0  0  0
  8 27  1  0  0  0  0
  9 12  2  0  0  0  0
  9 16  1  0  0  0  0
 10  6  1  0  0  0  0
 10 11  1  0  0  0  0
 11 17  2  0  0  0  0
 11 21  1  0  0  0  0
 12 13  1  0  0  0  0
 12 37  1  0  0  0  0
 13 14  2  0  0  0  0
 13 38  1  0  0  0  0
 14 28  1  0  0  0  0
 15 14  1  0  0  0  0
 15 39  1  0  0  0  0
 16 15  2  0  0  0  0
 16 40  1  0  0  0  0
 17 18  1  0  0  0  0
 17 41  1  0  0  0  0
 18 19  2  0  0  0  0
 18 42  1  0  0  0  0
 19 29  1  0  0  0  0
 20 19  1  0  0  0  0
 20 43  1  0  0  0  0
 21 20  2  0  0  0  0
 21 44  1  0  0  0  0
 22 10  2  0  0  0  0
 23 28  2  0  0  0  0
 28 24  2  0  0  0  0
 28  4  1  0  0  0  0
 29 25  2  0  0  0  0
 29 26  2  0  0  0  0
M  END
>  <lm5_entropy_jk>
23.933690845995674

>  <number_of_rotatable_bonds>
6

>  <IC50_NM>
70

>  <charge>
0

$$$$
