4IVC
 OpenBabel11252210453D

 45 48  0  0  1  0  0  0  0  0999 V2000
  -10.2970   28.8850    1.8160 C   0  0  0  0  0  0  0  0  0  0  0  0
  -11.3920   29.3650    0.8460 C   0  0  1  0  0  0  0  0  0  0  0  0
  -10.7260   29.7180   -0.3600 O   0  0  0  0  0  0  0  0  0  0  0  0
  -12.5130   28.3500    0.6010 C   0  0  0  0  0  0  0  0  0  0  0  0
  -13.7340   28.6520   -0.0610 N   0  0  0  0  0  0  0  0  0  0  0  0
  -14.4300   27.4570    0.0380 C   0  0  0  0  0  0  0  0  0  0  0  0
  -13.6330   26.5680    0.6880 C   0  0  0  0  0  0  0  0  0  0  0  0
  -12.4520   27.0880    1.0630 N   0  0  0  0  0  0  0  0  0  0  0  0
  -14.0590   25.2520    0.9110 C   0  0  0  0  0  0  0  0  0  0  0  0
  -15.2600   24.8070    0.4640 N   0  0  0  0  0  0  0  0  0  0  0  0
  -16.0480   25.6920   -0.1870 C   0  0  0  0  0  0  0  0  0  0  0  0
  -15.6980   27.0150   -0.4090 C   0  0  0  0  0  0  0  0  0  0  0  0
  -16.7930   27.6380   -1.1220 C   0  0  0  0  0  0  0  0  0  0  0  0
  -17.7510   26.6520   -1.3340 C   0  0  0  0  0  0  0  0  0  0  0  0
  -17.2830   25.4610   -0.7440 N   0  0  0  0  0  0  0  0  0  0  0  0
  -14.1100   29.9770   -0.6080 C   0  0  1  0  0  0  0  0  0  0  0  0
  -14.3460   30.0160   -2.1370 C   0  0  0  0  0  0  0  0  0  0  0  0
  -14.6990   31.4560   -2.6440 C   0  0  0  0  0  0  0  0  0  0  0  0
  -15.8600   32.0980   -1.8430 C   0  0  1  0  0  0  0  0  0  0  0  0
  -15.5190   32.0920   -0.3350 C   0  0  0  0  0  0  0  0  0  0  0  0
  -15.2520   30.6430    0.1770 C   0  0  0  0  0  0  0  0  0  0  0  0
  -16.1060   33.5470   -2.3350 C   0  0  0  0  0  0  0  0  0  0  0  0
  -17.3060   34.1760   -1.7780 C   0  0  0  0  0  0  0  0  0  0  0  0
  -18.2330   34.6970   -1.3320 N   0  0  0  0  0  0  0  0  0  0  0  0
  -11.8800   30.2500    1.2820 H   0  0  0  0  0  0  0  0  0  0  0  0
  -13.4290   24.5510    1.4560 H   0  0  0  0  0  0  0  0  0  0  0  0
  -16.9030   28.6610   -1.4560 H   0  0  0  0  0  0  0  0  0  0  0  0
  -18.7040   26.7090   -1.8520 H   0  0  0  0  0  0  0  0  0  0  0  0
  -13.2450   30.6340   -0.4580 H   0  0  0  0  0  0  0  0  0  0  0  0
  -13.4430   29.6460   -2.6420 H   0  0  0  0  0  0  0  0  0  0  0  0
  -15.1320   29.3080   -2.4160 H   0  0  0  0  0  0  0  0  0  0  0  0
  -13.8120   32.1000   -2.5780 H   0  0  0  0  0  0  0  0  0  0  0  0
  -14.9660   31.4170   -3.7100 H   0  0  0  0  0  0  0  0  0  0  0  0
  -16.7730   31.4960   -2.0070 H   0  0  0  0  0  0  0  0  0  0  0  0
  -14.6400   32.7270   -0.1630 H   0  0  0  0  0  0  0  0  0  0  0  0
  -16.3390   32.5510    0.2340 H   0  0  0  0  0  0  0  0  0  0  0  0
  -14.9970   30.6440    1.2460 H   0  0  0  0  0  0  0  0  0  0  0  0
  -16.1520   30.0250    0.0910 H   0  0  0  0  0  0  0  0  0  0  0  0
  -15.2570   34.1930   -2.0940 H   0  0  0  0  0  0  0  0  0  0  0  0
  -16.2090   33.5670   -3.4260 H   0  0  0  0  0  0  0  0  0  0  0  0
  -17.7650   24.5650   -0.7090 H   0  0  0  0  0  0  0  0  0  0  0  0
   -9.7710   29.4700   -0.2580 H   0  0  0  0  0  0  0  0  0  0  0  0
   -9.5640   29.6740    2.0270 H   0  0  0  0  0  0  0  0  0  0  0  0
   -9.7840   27.9960    1.4340 H   0  0  0  0  0  0  0  0  0  0  0  0
  -10.7500   28.6040    2.7770 H   0  0  0  0  0  0  0  0  0  0  0  0
  1  2  1  0  0  0  0
  2  4  1  0  0  0  0
  2  3  1  0  0  0  0
  2 25  1  1  0  0  0
  4  5  1  0  0  0  0
  4  8  2  0  0  0  0
  6  7  1  0  0  0  0
  6  5  1  0  0  0  0
  7  8  1  0  0  0  0
  9  7  2  0  0  0  0
  9 10  1  0  0  0  0
 11 12  1  0  0  0  0
 11 10  2  0  0  0  0
 11 15  1  0  0  0  0
 12 13  1  0  0  0  0
 12  6  2  0  0  0  0
 13 14  2  0  0  0  0
 14 15  1  0  0  0  0
 16 17  1  0  0  0  0
 16 21  1  0  0  0  0
 16  5  1  0  0  0  0
 16 29  1  1  0  0  0
 17 18  1  0  0  0  0
 18 19  1  0  0  0  0
 19 20  1  0  0  0  0
 19 22  1  0  0  0  0
 19 34  1  6  0  0  0
 20 21  1  0  0  0  0
 22 23  1  0  0  0  0
 23 24  3  0  0  0  0
 26  9  1  0  0  0  0
 27 13  1  0  0  0  0
 28 14  1  0  0  0  0
 30 17  1  0  0  0  0
 31 17  1  0  0  0  0
 32 18  1  0  0  0  0
 33 18  1  0  0  0  0
 35 20  1  0  0  0  0
 36 20  1  0  0  0  0
 37 21  1  0  0  0  0
 38 21  1  0  0  0  0
 39 22  1  0  0  0  0
 40 22  1  0  0  0  0
 41 15  1  0  0  0  0
 42  3  1  0  0  0  0
 43  1  1  0  0  0  0
 44  1  1  0  0  0  0
 45  1  1  0  0  0  0
M  END
>  <charge>
0

>  <pKi>
10

>  <number_of_rotatable_bonds>
3

>  <lm5_entropy_jk>
27.567193669021417

$$$$
