4IVC
 OpenBabel11252210453D

 45 48  0  0  1  0  0  0  0  0999 V2000
  -10.4030   29.0670    1.9430 C   0  0  0  0  0  0  0  0  0  0  0  0
  -11.4840   29.5250    0.9460 C   0  0  1  0  0  0  0  0  0  0  0  0
  -10.8000   29.9890   -0.2150 O   0  0  0  0  0  0  0  0  0  0  0  0
  -12.5310   28.4550    0.6230 C   0  0  0  0  0  0  0  0  0  0  0  0
  -13.7560   28.7220   -0.0440 N   0  0  0  0  0  0  0  0  0  0  0  0
  -14.4140   27.5040    0.0350 C   0  0  0  0  0  0  0  0  0  0  0  0
  -13.5790   26.6250    0.6540 C   0  0  0  0  0  0  0  0  0  0  0  0
  -12.4170   27.1810    1.0410 N   0  0  0  0  0  0  0  0  0  0  0  0
  -13.9580   25.2870    0.8410 C   0  0  0  0  0  0  0  0  0  0  0  0
  -15.1570   24.8200    0.4070 N   0  0  0  0  0  0  0  0  0  0  0  0
  -15.9870   25.7010   -0.1960 C   0  0  0  0  0  0  0  0  0  0  0  0
  -15.6790   27.0380   -0.3940 C   0  0  0  0  0  0  0  0  0  0  0  0
  -16.8100   27.6500   -1.0590 C   0  0  0  0  0  0  0  0  0  0  0  0
  -17.7500   26.6460   -1.2690 C   0  0  0  0  0  0  0  0  0  0  0  0
  -17.2330   25.4540   -0.7210 N   0  0  0  0  0  0  0  0  0  0  0  0
  -14.1330   30.0260   -0.6330 C   0  0  1  0  0  0  0  0  0  0  0  0
  -14.4010   30.0170   -2.1550 C   0  0  0  0  0  0  0  0  0  0  0  0
  -14.7060   31.4540   -2.7000 C   0  0  0  0  0  0  0  0  0  0  0  0
  -15.8190   32.1750   -1.8950 C   0  0  1  0  0  0  0  0  0  0  0  0
  -15.4650   32.1820   -0.3880 C   0  0  0  0  0  0  0  0  0  0  0  0
  -15.2480   30.7340    0.1470 C   0  0  0  0  0  0  0  0  0  0  0  0
  -15.9870   33.6250   -2.4170 C   0  0  0  0  0  0  0  0  0  0  0  0
  -17.1170   34.3510   -1.8330 C   0  0  0  0  0  0  0  0  0  0  0  0
  -17.9900   34.9460   -1.3710 N   0  0  0  0  0  0  0  0  0  0  0  0
  -12.0470   30.3560    1.3980 H   0  0  0  0  0  0  0  0  0  0  0  0
  -13.2940   24.5860    1.3470 H   0  0  0  0  0  0  0  0  0  0  0  0
  -16.9560   28.6780   -1.3660 H   0  0  0  0  0  0  0  0  0  0  0  0
  -18.7220   26.6900   -1.7520 H   0  0  0  0  0  0  0  0  0  0  0  0
  -13.2580   30.6790   -0.5280 H   0  0  0  0  0  0  0  0  0  0  0  0
  -13.5220   29.5990   -2.6640 H   0  0  0  0  0  0  0  0  0  0  0  0
  -15.2200   29.3320   -2.3940 H   0  0  0  0  0  0  0  0  0  0  0  0
  -13.7900   32.0620   -2.6830 H   0  0  0  0  0  0  0  0  0  0  0  0
  -14.9960   31.3920   -3.7590 H   0  0  0  0  0  0  0  0  0  0  0  0
  -16.7670   31.6240   -2.0360 H   0  0  0  0  0  0  0  0  0  0  0  0
  -14.5590   32.7850   -0.2370 H   0  0  0  0  0  0  0  0  0  0  0  0
  -16.2590   32.6850    0.1840 H   0  0  0  0  0  0  0  0  0  0  0  0
  -14.9910   30.7420    1.2150 H   0  0  0  0  0  0  0  0  0  0  0  0
  -16.1660   30.1430    0.0680 H   0  0  0  0  0  0  0  0  0  0  0  0
  -15.0830   34.2140   -2.2310 H   0  0  0  0  0  0  0  0  0  0  0  0
  -16.1350   33.6220   -3.5020 H   0  0  0  0  0  0  0  0  0  0  0  0
  -17.7030   24.5510   -0.6740 H   0  0  0  0  0  0  0  0  0  0  0  0
   -9.9090   29.5530   -0.2230 H   0  0  0  0  0  0  0  0  0  0  0  0
   -9.7030   29.8750    2.1900 H   0  0  0  0  0  0  0  0  0  0  0  0
   -9.8480   28.2010    1.5650 H   0  0  0  0  0  0  0  0  0  0  0  0
  -10.8750   28.7520    2.8840 H   0  0  0  0  0  0  0  0  0  0  0  0
  1  2  1  0  0  0  0
  2  4  1  0  0  0  0
  2  3  1  0  0  0  0
  2 25  1  1  0  0  0
  4  5  1  0  0  0  0
  4  8  2  0  0  0  0
  6  7  1  0  0  0  0
  6  5  1  0  0  0  0
  7  8  1  0  0  0  0
  9  7  2  0  0  0  0
  9 10  1  0  0  0  0
 11 12  1  0  0  0  0
 11 10  2  0  0  0  0
 11 15  1  0  0  0  0
 12 13  1  0  0  0  0
 12  6  2  0  0  0  0
 13 14  2  0  0  0  0
 14 15  1  0  0  0  0
 16 17  1  0  0  0  0
 16 21  1  0  0  0  0
 16  5  1  0  0  0  0
 16 29  1  1  0  0  0
 17 18  1  0  0  0  0
 18 19  1  0  0  0  0
 19 20  1  0  0  0  0
 19 22  1  0  0  0  0
 19 34  1  6  0  0  0
 20 21  1  0  0  0  0
 22 23  1  0  0  0  0
 23 24  3  0  0  0  0
 26  9  1  0  0  0  0
 27 13  1  0  0  0  0
 28 14  1  0  0  0  0
 30 17  1  0  0  0  0
 31 17  1  0  0  0  0
 32 18  1  0  0  0  0
 33 18  1  0  0  0  0
 35 20  1  0  0  0  0
 36 20  1  0  0  0  0
 37 21  1  0  0  0  0
 38 21  1  0  0  0  0
 39 22  1  0  0  0  0
 40 22  1  0  0  0  0
 41 15  1  0  0  0  0
 42  3  1  0  0  0  0
 43  1  1  0  0  0  0
 44  1  1  0  0  0  0
 45  1  1  0  0  0  0
M  END
>  <charge>
0

>  <pKi>
10

>  <number_of_rotatable_bonds>
3

>  <lm5_entropy_jk>
27.567193669021417

$$$$
