4I5C
 OpenBabel11252210453D

 38 41  0  0  1  0  0  0  0  0999 V2000
  -17.0060   27.4600   -1.0860 C   0  0  0  0  0  0  0  0  0  0  0  0
  -17.8460   26.3700   -1.2740 C   0  0  0  0  0  0  0  0  0  0  0  0
  -17.2340   25.2440   -0.6810 N   0  0  0  0  0  0  0  0  0  0  0  0
  -16.0220   25.6140   -0.1440 C   0  0  0  0  0  0  0  0  0  0  0  0
  -15.8560   26.9620   -0.3720 C   0  0  0  0  0  0  0  0  0  0  0  0
  -14.6670   27.5550    0.0630 C   0  0  0  0  0  0  0  0  0  0  0  0
  -13.7170   26.8170    0.6630 C   0  0  0  0  0  0  0  0  0  0  0  0
  -13.9380   25.4460    0.8870 C   0  0  0  0  0  0  0  0  0  0  0  0
  -15.0940   24.8440    0.4790 N   0  0  0  0  0  0  0  0  0  0  0  0
  -12.6210   27.5620    0.9380 N   0  0  0  0  0  0  0  0  0  0  0  0
  -12.8710   28.7990    0.4750 N   0  0  0  0  0  0  0  0  0  0  0  0
  -14.1540   28.8070   -0.0610 N   0  0  0  0  0  0  0  0  0  0  0  0
  -14.7260   29.9520   -0.7840 C   0  0  2  0  0  0  0  0  0  0  0  0
  -14.4990   29.8110   -2.3110 C   0  0  0  0  0  0  0  0  0  0  0  0
  -15.0840   31.0260   -3.0710 C   0  0  0  0  0  0  0  0  0  0  0  0
  -14.5050   32.3440   -2.5270 C   0  0  0  0  0  0  0  0  0  0  0  0
  -14.8190   32.4490   -1.0810 N   0  0  0  0  0  0  0  0  0  0  0  0
  -14.2030   31.3280   -0.3000 C   0  0  0  0  0  0  0  0  0  0  0  0
  -15.8600   33.2080   -0.5260 C   0  0  0  0  0  0  0  0  0  0  0  0
  -16.1160   33.1460    0.6560 O   0  0  0  0  0  0  0  0  0  0  0  0
  -16.6540   34.0850   -1.4480 C   0  0  0  0  0  0  0  0  0  0  0  0
  -17.7510   34.7980   -0.8140 C   0  0  0  0  0  0  0  0  0  0  0  0
  -18.6320   35.3630   -0.3340 N   0  0  0  0  0  0  0  0  0  0  0  0
  -17.2110   28.4620   -1.4490 H   0  0  0  0  0  0  0  0  0  0  0  0
  -18.8070   26.3090   -1.7770 H   0  0  0  0  0  0  0  0  0  0  0  0
  -13.1880   24.8250    1.3790 H   0  0  0  0  0  0  0  0  0  0  0  0
  -15.8090   29.9500   -0.5860 H   0  0  0  0  0  0  0  0  0  0  0  0
  -14.9880   28.8860   -2.6580 H   0  0  0  0  0  0  0  0  0  0  0  0
  -13.4240   29.6890   -2.5130 H   0  0  0  0  0  0  0  0  0  0  0  0
  -16.1730   31.0310   -2.9130 H   0  0  0  0  0  0  0  0  0  0  0  0
  -14.9150   30.9360   -4.1560 H   0  0  0  0  0  0  0  0  0  0  0  0
  -13.4130   32.3650   -2.6700 H   0  0  0  0  0  0  0  0  0  0  0  0
  -14.9100   33.1910   -3.0960 H   0  0  0  0  0  0  0  0  0  0  0  0
  -14.4390   31.4280    0.7700 H   0  0  0  0  0  0  0  0  0  0  0  0
  -13.1110   31.3550   -0.3850 H   0  0  0  0  0  0  0  0  0  0  0  0
  -17.0740   33.4490   -2.2270 H   0  0  0  0  0  0  0  0  0  0  0  0
  -15.9810   34.8160   -1.8920 H   0  0  0  0  0  0  0  0  0  0  0  0
  -17.6350   24.3100   -0.6210 H   0  0  0  0  0  0  0  0  0  0  0  0
  1  2  2  0  0  0  0
  1  5  1  0  0  0  0
  2  3  1  0  0  0  0
  4  5  2  0  0  0  0
  4  9  1  0  0  0  0
  4  3  1  0  0  0  0
  5  6  1  0  0  0  0
  6  7  2  0  0  0  0
  6 12  1  0  0  0  0
  7  8  1  0  0  0  0
  7 10  1  0  0  0  0
  8  9  2  0  0  0  0
 10 11  2  0  0  0  0
 11 12  1  0  0  0  0
 13 14  1  0  0  0  0
 13 18  1  0  0  0  0
 13 12  1  0  0  0  0
 13 27  1  1  0  0  0
 14 15  1  0  0  0  0
 15 16  1  0  0  0  0
 16 17  1  0  0  0  0
 18 17  1  0  0  0  0
 19 21  1  0  0  0  0
 19 17  1  0  0  0  0
 19 20  2  0  0  0  0
 21 22  1  0  0  0  0
 22 23  3  0  0  0  0
 24  1  1  0  0  0  0
 25  2  1  0  0  0  0
 26  8  1  0  0  0  0
 28 14  1  0  0  0  0
 29 14  1  0  0  0  0
 30 15  1  0  0  0  0
 31 15  1  0  0  0  0
 32 16  1  0  0  0  0
 33 16  1  0  0  0  0
 34 18  1  0  0  0  0
 35 18  1  0  0  0  0
 36 21  1  0  0  0  0
 37 21  1  0  0  0  0
 38  3  1  0  0  0  0
M  END
>  <charge>
0

>  <pKi>
8.82

>  <number_of_rotatable_bonds>
3

>  <lm5_entropy_jk>
19.1780333427044

$$$$
