4I5C
 OpenBabel11252210453D

 38 41  0  0  1  0  0  0  0  0999 V2000
  -17.1250   27.3490   -1.0610 C   0  0  0  0  0  0  0  0  0  0  0  0
  -17.9090   26.2300   -1.3140 C   0  0  0  0  0  0  0  0  0  0  0  0
  -17.2650   25.1160   -0.7290 N   0  0  0  0  0  0  0  0  0  0  0  0
  -16.0900   25.5180   -0.1430 C   0  0  0  0  0  0  0  0  0  0  0  0
  -15.9780   26.8780   -0.3200 C   0  0  0  0  0  0  0  0  0  0  0  0
  -14.8260   27.5030    0.1650 C   0  0  0  0  0  0  0  0  0  0  0  0
  -13.8530   26.7800    0.7490 C   0  0  0  0  0  0  0  0  0  0  0  0
  -14.0180   25.3940    0.9190 C   0  0  0  0  0  0  0  0  0  0  0  0
  -15.1440   24.7640    0.4720 N   0  0  0  0  0  0  0  0  0  0  0  0
  -12.7870   27.5550    1.0580 N   0  0  0  0  0  0  0  0  0  0  0  0
  -13.0810   28.7960    0.6320 N   0  0  0  0  0  0  0  0  0  0  0  0
  -14.3620   28.7760    0.0900 N   0  0  0  0  0  0  0  0  0  0  0  0
  -14.9550   29.9150   -0.6250 C   0  0  2  0  0  0  0  0  0  0  0  0
  -14.6650   29.8070   -2.1430 C   0  0  0  0  0  0  0  0  0  0  0  0
  -15.2180   31.0330   -2.9150 C   0  0  0  0  0  0  0  0  0  0  0  0
  -14.6940   32.3550   -2.3130 C   0  0  0  0  0  0  0  0  0  0  0  0
  -15.0810   32.4240   -0.8780 N   0  0  0  0  0  0  0  0  0  0  0  0
  -14.4940   31.2960   -0.0880 C   0  0  0  0  0  0  0  0  0  0  0  0
  -16.0680   33.2510   -0.3240 C   0  0  0  0  0  0  0  0  0  0  0  0
  -16.2910   33.2470    0.8670 O   0  0  0  0  0  0  0  0  0  0  0  0
  -16.8490   34.1230   -1.2570 C   0  0  0  0  0  0  0  0  0  0  0  0
  -17.9620   34.8260   -0.6410 C   0  0  0  0  0  0  0  0  0  0  0  0
  -18.8540   35.3800   -0.1700 N   0  0  0  0  0  0  0  0  0  0  0  0
  -17.3540   28.3470   -1.4210 H   0  0  0  0  0  0  0  0  0  0  0  0
  -18.8450   26.1420   -1.8590 H   0  0  0  0  0  0  0  0  0  0  0  0
  -13.2470   24.7830    1.3900 H   0  0  0  0  0  0  0  0  0  0  0  0
  -16.0420   29.8680   -0.4690 H   0  0  0  0  0  0  0  0  0  0  0  0
  -15.1150   28.8770   -2.5290 H   0  0  0  0  0  0  0  0  0  0  0  0
  -13.5820   29.7020   -2.2950 H   0  0  0  0  0  0  0  0  0  0  0  0
  -16.3200   31.0190   -2.8590 H   0  0  0  0  0  0  0  0  0  0  0  0
  -14.9490   30.9650   -3.9810 H   0  0  0  0  0  0  0  0  0  0  0  0
  -13.5970   32.3920   -2.3980 H   0  0  0  0  0  0  0  0  0  0  0  0
  -15.0650   33.2180   -2.8890 H   0  0  0  0  0  0  0  0  0  0  0  0
  -14.7850   31.3760    0.9710 H   0  0  0  0  0  0  0  0  0  0  0  0
  -13.4000   31.3490   -0.1160 H   0  0  0  0  0  0  0  0  0  0  0  0
  -17.2440   33.4890   -2.0500 H   0  0  0  0  0  0  0  0  0  0  0  0
  -16.1680   34.8570   -1.6860 H   0  0  0  0  0  0  0  0  0  0  0  0
  -17.6200   24.1620   -0.7010 H   0  0  0  0  0  0  0  0  0  0  0  0
  1  2  2  0  0  0  0
  1  5  1  0  0  0  0
  2  3  1  0  0  0  0
  4  5  2  0  0  0  0
  4  9  1  0  0  0  0
  4  3  1  0  0  0  0
  5  6  1  0  0  0  0
  6  7  2  0  0  0  0
  6 12  1  0  0  0  0
  7  8  1  0  0  0  0
  7 10  1  0  0  0  0
  8  9  2  0  0  0  0
 10 11  2  0  0  0  0
 11 12  1  0  0  0  0
 13 14  1  0  0  0  0
 13 18  1  0  0  0  0
 13 12  1  0  0  0  0
 13 27  1  1  0  0  0
 14 15  1  0  0  0  0
 15 16  1  0  0  0  0
 16 17  1  0  0  0  0
 18 17  1  0  0  0  0
 19 21  1  0  0  0  0
 19 17  1  0  0  0  0
 19 20  2  0  0  0  0
 21 22  1  0  0  0  0
 22 23  3  0  0  0  0
 24  1  1  0  0  0  0
 25  2  1  0  0  0  0
 26  8  1  0  0  0  0
 28 14  1  0  0  0  0
 29 14  1  0  0  0  0
 30 15  1  0  0  0  0
 31 15  1  0  0  0  0
 32 16  1  0  0  0  0
 33 16  1  0  0  0  0
 34 18  1  0  0  0  0
 35 18  1  0  0  0  0
 36 21  1  0  0  0  0
 37 21  1  0  0  0  0
 38  3  1  0  0  0  0
M  END
>  <charge>
0

>  <pKi>
8.82

>  <number_of_rotatable_bonds>
3

>  <lm5_entropy_jk>
19.1780333427044

$$$$
