3R8U
 OpenBabel11252210453D

 37 39  0  0  1  0  0  0  0  0999 V2000
   64.1970  155.4510  -48.8660 N   0  0  0  0  0  0  0  0  0  0  0  0
   65.6770  154.5830  -50.5230 N   0  0  0  0  0  0  0  0  0  0  0  0
   67.3870  153.4760  -51.7800 N   0  0  0  0  0  0  0  0  0  0  0  0
   62.6030  153.5890  -46.0990 C   0  0  0  0  0  0  0  0  0  0  0  0
   62.7380  154.1260  -47.3090 C   0  0  0  0  0  0  0  0  0  0  0  0
   63.5520  155.3730  -47.5320 C   0  0  0  0  0  0  0  0  0  0  0  0
   65.1380  154.5460  -49.2810 C   0  0  0  0  0  0  0  0  0  0  0  0
   67.0850  152.9800  -49.3860 C   0  0  0  0  0  0  0  0  0  0  0  0
   66.7680  153.6700  -50.5800 C   0  0  0  0  0  0  0  0  0  0  0  0
   68.2090  152.1340  -49.1350 C   0  0  0  0  0  0  0  0  0  0  0  0
   68.2240  151.2730  -47.8970 C   0  0  0  0  0  0  0  0  0  0  0  0
   68.1200  151.7650  -46.6190 C   0  0  0  0  0  0  0  0  0  0  0  0
   68.2460  150.8910  -45.4880 C   0  0  0  0  0  0  0  0  0  0  0  0
   68.4320  149.5000  -45.7040 C   0  0  0  0  0  0  0  0  0  0  0  0
   68.5160  149.0140  -47.0470 C   0  0  0  0  0  0  0  0  0  0  0  0
   68.4260  149.8730  -48.1100 C   0  0  0  0  0  0  0  0  0  0  0  0
   68.2100  151.3790  -44.1430 C   0  0  0  0  0  0  0  0  0  0  0  0
   68.3060  150.5130  -43.0820 C   0  0  0  0  0  0  0  0  0  0  0  0
   68.4600  149.1140  -43.3020 C   0  0  0  0  0  0  0  0  0  0  0  0
   68.5370  148.6220  -44.5800 C   0  0  0  0  0  0  0  0  0  0  0  0
   69.1540  152.0470  -49.9150 O   0  0  0  0  0  0  0  0  0  0  0  0
   65.8660  153.2630  -48.1880 S   0  0  0  0  0  0  0  0  0  0  0  0
   62.8540  156.2610  -47.4670 H   0  0  0  0  0  0  0  0  0  0  0  0
   64.3420  155.4930  -46.7490 H   0  0  0  0  0  0  0  0  0  0  0  0
   63.5630  155.8720  -49.5810 H   0  0  0  0  0  0  0  0  0  0  0  0
   67.1470  154.0800  -52.5940 H   0  0  0  0  0  0  0  0  0  0  0  0
   68.2570  152.9380  -51.8190 H   0  0  0  0  0  0  0  0  0  0  0  0
   67.9590  152.8270  -46.4200 H   0  0  0  0  0  0  0  0  0  0  0  0
   68.6550  147.9440  -47.2020 H   0  0  0  0  0  0  0  0  0  0  0  0
   68.5130  149.4920  -49.1300 H   0  0  0  0  0  0  0  0  0  0  0  0
   68.1160  152.4490  -43.9640 H   0  0  0  0  0  0  0  0  0  0  0  0
   68.2670  150.8720  -42.0500 H   0  0  0  0  0  0  0  0  0  0  0  0
   68.5190  148.4500  -42.4340 H   0  0  0  0  0  0  0  0  0  0  0  0
   68.6740  147.5520  -44.7540 H   0  0  0  0  0  0  0  0  0  0  0  0
   61.9970  152.7100  -45.9090 H   0  0  0  0  0  0  0  0  0  0  0  0
   63.0910  153.9980  -45.2120 H   0  0  0  0  0  0  0  0  0  0  0  0
   62.2480  153.7300  -48.1990 H   0  0  0  0  0  0  0  0  0  0  0  0
  1  6  1  0  0  0  0
  1  7  1  0  0  0  0
  1 25  1  0  0  0  0
  2  7  2  0  0  0  0
  2  9  1  0  0  0  0
  3  9  1  0  0  0  0
  3 26  1  0  0  0  0
  3 27  1  0  0  0  0
  4  5  2  0  0  0  0
  4 35  1  0  0  0  0
  4 36  1  0  0  0  0
  5  6  1  0  0  0  0
  5 37  1  0  0  0  0
  6 23  1  0  0  0  0
  6 24  1  0  0  0  0
  7 22  1  0  0  0  0
  8  9  2  0  0  0  0
  8 22  1  0  0  0  0
 10  8  1  0  0  0  0
 10 11  1  0  0  0  0
 10 21  2  0  0  0  0
 11 12  2  0  0  0  0
 11 16  1  0  0  0  0
 12 13  1  0  0  0  0
 12 28  1  0  0  0  0
 13 14  2  0  0  0  0
 13 17  1  0  0  0  0
 14 15  1  0  0  0  0
 14 20  1  0  0  0  0
 15 16  2  0  0  0  0
 15 29  1  0  0  0  0
 16 30  1  0  0  0  0
 17 18  2  0  0  0  0
 17 31  1  0  0  0  0
 18 19  1  0  0  0  0
 18 32  1  0  0  0  0
 19 20  2  0  0  0  0
 19 33  1  0  0  0  0
 20 34  1  0  0  0  0
M  END
>  <lm5_entropy_jk>
31.97375871552738

>  <number_of_rotatable_bonds>
5

>  <IC50_NM>
5000

>  <charge>
0

$$$$
