5NXI
 OpenBabel11252210453D

 31 32  0  0  0  0  0  0  0  0999 V2000
   -3.9580    7.2180   12.9830 N   0  0  0  0  0  0  0  0  0  0  0  0
   -5.4050    1.0840   15.8640 N   0  5  0  0  0  0  0  0  0  0  0  0
   -2.4010    9.1820   12.0460 C   0  0  0  0  0  0  0  0  0  0  0  0
   -1.7560    9.7450   13.1550 C   0  0  0  0  0  0  0  0  0  0  0  0
   -1.5690   11.1310   13.2380 C   0  0  0  0  0  0  0  0  0  0  0  0
   -2.0490   11.9400   12.2090 C   0  0  0  0  0  0  0  0  0  0  0  0
   -2.6950   11.3980   11.0970 C   0  0  0  0  0  0  0  0  0  0  0  0
   -2.8740   10.0110   11.0230 C   0  0  0  0  0  0  0  0  0  0  0  0
   -5.5200    6.1310   14.5050 C   0  0  0  0  0  0  0  0  0  0  0  0
   -5.8850    5.0650   15.3300 C   0  0  0  0  0  0  0  0  0  0  0  0
   -5.0890    3.9180   15.4230 C   0  0  0  0  0  0  0  0  0  0  0  0
   -3.9110    3.8630   14.6830 C   0  0  0  0  0  0  0  0  0  0  0  0
   -3.5150    4.9270   13.8590 C   0  0  0  0  0  0  0  0  0  0  0  0
   -4.3160    6.0740   13.7710 C   0  0  0  0  0  0  0  0  0  0  0  0
   -1.4450    6.7730   12.5480 O   0  0  0  0  0  0  0  0  0  0  0  0
   -2.9430    7.0040   10.6060 O   0  0  0  0  0  0  0  0  0  0  0  0
   -4.8460    2.8200   17.7540 O   0  0  0  0  0  0  0  0  0  0  0  0
   -7.0660    2.6790   16.5000 O   0  0  0  0  0  0  0  0  0  0  0  0
   -1.8590   13.8410   12.3490 Br  0  0  0  0  0  0  0  0  0  0  0  0
   -2.6000    7.4450   11.9600 S   0  0  0  0  0  0  0  0  0  0  0  0
   -5.5920    2.6060   16.5090 S   0  0  0  0  0  0  0  0  0  0  0  0
   -4.6960    7.9410   12.9100 H   0  0  0  0  0  0  0  0  0  0  0  0
   -4.4610    0.6960   16.2220 H   0  0  0  0  0  0  0  0  0  0  0  0
   -1.3920    9.1250   13.9850 H   0  0  0  0  0  0  0  0  0  0  0  0
   -1.0620   11.5670   14.1070 H   0  0  0  0  0  0  0  0  0  0  0  0
   -3.0730   12.0410   10.2930 H   0  0  0  0  0  0  0  0  0  0  0  0
   -3.4010    9.6080   10.1460 H   0  0  0  0  0  0  0  0  0  0  0  0
   -6.1510    7.0170   14.4490 H   0  0  0  0  0  0  0  0  0  0  0  0
   -6.8090    5.1680   15.9130 H   0  0  0  0  0  0  0  0  0  0  0  0
   -3.2580    2.9860   14.7170 H   0  0  0  0  0  0  0  0  0  0  0  0
   -2.5700    4.8490   13.3160 H   0  0  0  0  0  0  0  0  0  0  0  0
  1 20  1  0  0  0  0
  2 21  1  0  0  0  0
  3  4  2  0  0  0  0
  3  8  1  0  0  0  0
  3 20  1  0  0  0  0
  4  5  1  0  0  0  0
  5  6  2  0  0  0  0
  6  7  1  0  0  0  0
  6 19  1  0  0  0  0
  7  8  2  0  0  0  0
  9 10  2  0  0  0  0
  9 14  1  0  0  0  0
 10 11  1  0  0  0  0
 11 12  2  0  0  0  0
 11 21  1  0  0  0  0
 12 13  1  0  0  0  0
 13 14  2  0  0  0  0
 14  1  1  0  0  0  0
 15 20  2  0  0  0  0
 16 20  2  0  0  0  0
 17 21  2  0  0  0  0
 18 21  2  0  0  0  0
 22  1  1  0  0  0  0
 23  2  1  0  0  0  0
 24  4  1  0  0  0  0
 25  5  1  0  0  0  0
 26  7  1  0  0  0  0
 27  8  1  0  0  0  0
 28  9  1  0  0  0  0
 29 10  1  0  0  0  0
 30 12  1  0  0  0  0
 31 13  1  0  0  0  0
M  CHG  1   2  -1
M  END
>  <deltaG_kcalmol>
-9.1

>  <number_of_rotatable_bonds>
4

>  <charge>
-1

>  <lm5_entropy_jk>
23.26150331504224

$$$$
