5QCP
 OpenBabel11252210453D

 85 88  0  0  1  0  0  0  0  0999 V2000
   30.5740    5.7540   15.8570 N   0  0  0  0  0  0  0  0  0  0  0  0
   31.7410    5.9830   14.9810 C   0  0  1  0  0  0  0  0  0  0  0  0
   32.8220    6.8380   15.6710 C   0  0  0  0  0  0  0  0  0  0  0  0
   32.2670    8.1510   16.1680 C   0  0  0  0  0  0  0  0  0  0  0  0
   32.0890    8.3430   17.5490 C   0  0  0  0  0  0  0  0  0  0  0  0
   31.6190    9.5740   18.0110 C   0  0  0  0  0  0  0  0  0  0  0  0
   31.2270   10.5960   17.1150 C   0  0  0  0  0  0  0  0  0  0  0  0
   31.3760   10.3690   15.7540 C   0  0  0  0  0  0  0  0  0  0  0  0
   31.9210    9.1660   15.2740 C   0  0  0  0  0  0  0  0  0  0  0  0
   31.4510    9.9370   19.3230 O   0  0  0  0  0  0  0  0  0  0  0  0
   31.9710    9.0930   20.3960 C   0  0  0  0  0  0  0  0  0  0  0  0
   30.8110    8.5240   21.2150 C   0  0  0  0  0  0  0  0  0  0  0  0
   29.7060    7.8600   20.3860 C   0  0  0  0  0  0  0  0  0  0  0  0
   28.7610    8.9210   19.8160 C   0  0  0  0  0  0  0  0  0  0  0  0
   27.4810    8.3310   19.4360 O   0  0  0  0  0  0  0  0  0  0  0  0
   27.4510    7.3950   18.4440 C   0  0  0  0  0  0  0  0  0  0  0  0
   28.4520    7.1800   17.4910 C   0  0  0  0  0  0  0  0  0  0  0  0
   28.2570    6.1620   16.5500 C   0  0  0  0  0  0  0  0  0  0  0  0
   27.1450    5.3330   16.5670 C   0  0  0  0  0  0  0  0  0  0  0  0
   26.1380    5.6060   17.5270 C   0  0  0  0  0  0  0  0  0  0  0  0
   26.2560    6.6470   18.4450 C   0  0  0  0  0  0  0  0  0  0  0  0
   25.0760    4.7360   17.4550 O   0  0  0  0  0  0  0  0  0  0  0  0
   23.9280    5.0100   18.2940 C   0  0  0  0  0  0  0  0  0  0  0  0
   24.2260    4.7740   19.7810 C   0  0  0  0  0  0  0  0  0  0  0  0
   25.1360    4.0700   20.1520 O   0  0  0  0  0  0  0  0  0  0  0  0
   23.2840    5.4860   20.6960 C   0  0  0  0  0  0  0  0  0  0  0  0
   29.2630    6.0480   15.4390 C   0  0  0  0  0  0  0  0  0  0  0  0
   28.9820    6.1570   14.2550 O   0  0  0  0  0  0  0  0  0  0  0  0
   32.2920    4.5680   14.6230 C   0  0  2  0  0  0  0  0  0  0  0  0
   33.3770    4.6650   13.6860 O   0  0  0  0  0  0  0  0  0  0  0  0
   31.2310    3.7620   13.8510 C   0  0  0  0  0  0  0  0  0  0  0  0
   31.8230    2.4160   13.4430 N   0  3  0  0  0  0  0  0  0  0  0  0
   30.9610    1.7130   12.3900 C   0  0  0  0  0  0  0  0  0  0  0  0
   30.8790    2.4650   11.0820 C   0  0  0  0  0  0  0  0  0  0  0  0
   32.0130    3.0300   10.4860 C   0  0  0  0  0  0  0  0  0  0  0  0
   31.9460    3.6270    9.2200 C   0  0  0  0  0  0  0  0  0  0  0  0
   30.7040    3.6910    8.5690 C   0  0  0  0  0  0  0  0  0  0  0  0
   29.5640    3.1530    9.1700 C   0  0  0  0  0  0  0  0  0  0  0  0
   29.6450    2.5340   10.4220 C   0  0  0  0  0  0  0  0  0  0  0  0
   33.2040    4.1750    8.5680 C   0  0  0  0  0  0  0  0  0  0  0  0
   33.7420    5.3640    9.3760 C   0  0  0  0  0  0  0  0  0  0  0  0
   34.2640    3.0720    8.4170 C   0  0  0  0  0  0  0  0  0  0  0  0
   30.8090    5.7260   16.8690 H   0  0  0  0  0  0  0  0  0  0  0  0
   31.4310    6.5050   14.0410 H   0  0  0  0  0  0  0  0  0  0  0  0
   33.6400    7.0350   14.9280 H   0  0  0  0  0  0  0  0  0  0  0  0
   33.2740    6.2590   16.5140 H   0  0  0  0  0  0  0  0  0  0  0  0
   32.3270    7.5310   18.2220 H   0  0  0  0  0  0  0  0  0  0  0  0
   30.8460   11.5420   17.5020 H   0  0  0  0  0  0  0  0  0  0  0  0
   31.0670   11.1360   15.0420 H   0  0  0  0  0  0  0  0  0  0  0  0
   32.0920    9.0350   14.2100 H   0  0  0  0  0  0  0  0  0  0  0  0
   32.6260    8.2960   19.9960 H   0  0  0  0  0  0  0  0  0  0  0  0
   32.5550    9.8420   20.9870 H   0  0  0  0  0  0  0  0  0  0  0  0
   30.3540    9.3490   21.8130 H   0  0  0  0  0  0  0  0  0  0  0  0
   31.2330    7.7580   21.9160 H   0  0  0  0  0  0  0  0  0  0  0  0
   30.1640    7.2570   19.5650 H   0  0  0  0  0  0  0  0  0  0  0  0
   29.1260    7.1720   21.0500 H   0  0  0  0  0  0  0  0  0  0  0  0
   28.4070    9.6310   20.6020 H   0  0  0  0  0  0  0  0  0  0  0  0
   29.2000    9.4560   18.9470 H   0  0  0  0  0  0  0  0  0  0  0  0
   29.3670    7.7740   17.4680 H   0  0  0  0  0  0  0  0  0  0  0  0
   27.0440    4.4880   15.8880 H   0  0  0  0  0  0  0  0  0  0  0  0
   25.4760    6.9120   19.1590 H   0  0  0  0  0  0  0  0  0  0  0  0
   23.1850    4.2620   17.9170 H   0  0  0  0  0  0  0  0  0  0  0  0
   23.5490    6.0430   18.0960 H   0  0  0  0  0  0  0  0  0  0  0  0
   32.6530    4.0480   15.5380 H   0  0  0  0  0  0  0  0  0  0  0  0
   30.9400    4.3190   12.9140 H   0  0  0  0  0  0  0  0  0  0  0  0
   30.3220    3.5900   14.4980 H   0  0  0  0  0  0  0  0  0  0  0  0
   32.8090    2.5850   13.0490 H   0  0  0  0  0  0  0  0  0  0  0  0
   31.8830    1.8120   14.3150 H   0  0  0  0  0  0  0  0  0  0  0  0
   31.4010    0.6910   12.1930 H   0  0  0  0  0  0  0  0  0  0  0  0
   29.9250    1.5740   12.8260 H   0  0  0  0  0  0  0  0  0  0  0  0
   32.9680    3.0360   11.0010 H   0  0  0  0  0  0  0  0  0  0  0  0
   30.6240    4.1750    7.5890 H   0  0  0  0  0  0  0  0  0  0  0  0
   28.5960    3.2070    8.6600 H   0  0  0  0  0  0  0  0  0  0  0  0
   28.7500    2.1020   10.8760 H   0  0  0  0  0  0  0  0  0  0  0  0
   32.9440    4.5500    7.5410 H   0  0  0  0  0  0  0  0  0  0  0  0
   34.2540    4.8340   14.2250 H   0  0  0  0  0  0  0  0  0  0  0  0
   33.8730    2.2400    7.7930 H   0  0  0  0  0  0  0  0  0  0  0  0
   35.1690    3.4900    7.9150 H   0  0  0  0  0  0  0  0  0  0  0  0
   34.5670    2.6730    9.4090 H   0  0  0  0  0  0  0  0  0  0  0  0
   33.0380    6.2240    9.2920 H   0  0  0  0  0  0  0  0  0  0  0  0
   34.7340    5.6710    8.9800 H   0  0  0  0  0  0  0  0  0  0  0  0
   33.8520    5.0980   10.4470 H   0  0  0  0  0  0  0  0  0  0  0  0
   23.4660    5.2380   21.7690 H   0  0  0  0  0  0  0  0  0  0  0  0
   22.2200    5.2270   20.4530 H   0  0  0  0  0  0  0  0  0  0  0  0
   23.3760    6.5980   20.5810 H   0  0  0  0  0  0  0  0  0  0  0  0
  1  2  1  0  0  0  0
  1 27  1  0  0  0  0
  2  3  1  0  0  0  0
  2 29  1  0  0  0  0
  2 44  1  6  0  0  0
  3  4  1  0  0  0  0
  4  5  2  0  0  0  0
  4  9  1  0  0  0  0
  5  6  1  0  0  0  0
  6  7  2  0  0  0  0
  6 10  1  0  0  0  0
  7  8  1  0  0  0  0
  8  9  2  0  0  0  0
 10 11  1  0  0  0  0
 11 12  1  0  0  0  0
 12 13  1  0  0  0  0
 13 14  1  0  0  0  0
 14 15  1  0  0  0  0
 15 16  1  0  0  0  0
 16 17  2  0  0  0  0
 16 21  1  0  0  0  0
 17 18  1  0  0  0  0
 18 19  2  0  0  0  0
 18 27  1  0  0  0  0
 19 20  1  0  0  0  0
 20 21  2  0  0  0  0
 20 22  1  0  0  0  0
 22 23  1  0  0  0  0
 23 24  1  0  0  0  0
 24 25  2  0  0  0  0
 24 26  1  0  0  0  0
 27 28  2  0  0  0  0
 29 30  1  0  0  0  0
 29 31  1  0  0  0  0
 29 64  1  1  0  0  0
 31 32  1  0  0  0  0
 32 33  1  0  0  0  0
 33 34  1  0  0  0  0
 34 35  2  0  0  0  0
 34 39  1  0  0  0  0
 35 36  1  0  0  0  0
 36 37  2  0  0  0  0
 36 40  1  0  0  0  0
 37 38  1  0  0  0  0
 38 39  2  0  0  0  0
 40 41  1  0  0  0  0
 40 42  1  0  0  0  0
 43  1  1  0  0  0  0
 45  3  1  0  0  0  0
 46  3  1  0  0  0  0
 47  5  1  0  0  0  0
 48  7  1  0  0  0  0
 49  8  1  0  0  0  0
 50  9  1  0  0  0  0
 51 11  1  0  0  0  0
 52 11  1  0  0  0  0
 53 12  1  0  0  0  0
 54 12  1  0  0  0  0
 55 13  1  0  0  0  0
 56 13  1  0  0  0  0
 57 14  1  0  0  0  0
 58 14  1  0  0  0  0
 59 17  1  0  0  0  0
 60 19  1  0  0  0  0
 61 21  1  0  0  0  0
 62 23  1  0  0  0  0
 63 23  1  0  0  0  0
 65 31  1  0  0  0  0
 66 31  1  0  0  0  0
 67 32  1  0  0  0  0
 68 32  1  0  0  0  0
 69 33  1  0  0  0  0
 70 33  1  0  0  0  0
 71 35  1  0  0  0  0
 72 37  1  0  0  0  0
 73 38  1  0  0  0  0
 74 39  1  0  0  0  0
 75 40  1  0  0  0  0
 76 30  1  0  0  0  0
 77 42  1  0  0  0  0
 78 42  1  0  0  0  0
 79 42  1  0  0  0  0
 80 41  1  0  0  0  0
 81 41  1  0  0  0  0
 82 41  1  0  0  0  0
 83 26  1  0  0  0  0
 84 26  1  0  0  0  0
 85 26  1  0  0  0  0
M  CHG  1  32   1
M  END
>  <IC50_NM>
34

>  <number_of_rotatable_bonds>
9

>  <lm5_entropy_jk>
41.486223211327754

>  <charge>
1

>  <old_name>
BACE_16

>  <xray_resolution>
2.45

$$$$
