3OXC
 OpenBabel11252210453D

100104  0  0  1  0  0  0  0  0999 V2000
    6.5830   -6.1620   17.1380 N   0  0  0  0  0  0  0  0  0  0  0  0
    7.4670   -4.9910   16.9460 C   0  0  1  0  0  0  0  0  0  0  0  0
    5.1330   -2.0940   15.8480 C   0  0  2  0  0  0  0  0  0  0  0  0
    6.0800   -6.5720   18.3540 C   0  0  0  0  0  0  0  0  0  0  0  0
    6.3850   -6.0070   19.3930 O   0  0  0  0  0  0  0  0  0  0  0  0
    8.8790   -5.5240   16.5460 C   0  0  0  0  0  0  0  0  0  0  0  0
    3.6400   -2.2740   16.2160 C   0  0  0  0  0  0  0  0  0  0  0  0
    9.6630   -5.9970   17.7340 C   0  0  0  0  0  0  0  0  0  0  0  0
    3.1630   -3.6670   15.8890 C   0  0  0  0  0  0  0  0  0  0  0  0
    1.1670    0.7260   12.0000 C   0  0  0  0  0  0  0  0  0  0  0  0
    2.7130   -3.9770   14.5980 C   0  0  0  0  0  0  0  0  0  0  0  0
    3.2080   -4.6610   16.8720 C   0  0  0  0  0  0  0  0  0  0  0  0
   10.4880   -7.0350   17.5180 N   0  0  0  0  0  0  0  0  0  0  0  0
    9.5810   -5.4820   18.8230 O   0  0  0  0  0  0  0  0  0  0  0  0
    2.3280   -5.2940   14.2890 C   0  0  0  0  0  0  0  0  0  0  0  0
    2.8250   -5.9720   16.5620 C   0  0  0  0  0  0  0  0  0  0  0  0
    2.4050   -6.2920   15.2680 C   0  0  0  0  0  0  0  0  0  0  0  0
    5.1060    0.3590   15.1240 C   0  0  0  0  0  0  0  0  0  0  0  0
    6.8150   -3.9570   15.9760 C   0  0  0  0  0  0  0  0  0  0  0  0
    5.0550   -8.5060   17.1810 N   0  0  0  0  0  0  0  0  0  0  0  0
    7.0570   -3.8900   14.7790 O   0  0  0  0  0  0  0  0  0  0  0  0
    5.0810   -7.7280   18.2940 C   0  0  0  0  0  0  0  0  0  0  0  0
    5.9280   -3.0920   16.5760 N   0  0  0  0  0  0  0  0  0  0  0  0
    5.2980   -0.1990   17.3750 O   0  0  0  0  0  0  0  0  0  0  0  0
    4.1270   -7.8980   19.3190 C   0  0  0  0  0  0  0  0  0  0  0  0
    6.8020    2.3400   11.6600 C   0  0  2  0  0  0  0  0  0  0  0  0
    2.4690    1.1550   12.2450 N   0  0  0  0  0  0  0  0  0  0  0  0
    3.5870   -0.8180   12.7030 O   0  0  0  0  0  0  0  0  0  0  0  0
    3.1120   -8.8610   19.1650 C   0  0  0  0  0  0  0  0  0  0  0  0
    3.1000   -9.6510   18.0040 C   0  0  0  0  0  0  0  0  0  0  0  0
    2.1020  -10.6270   17.8170 C   0  0  0  0  0  0  0  0  0  0  0  0
    2.1000  -11.4150   16.6540 C   0  0  0  0  0  0  0  0  0  0  0  0
    3.0870  -11.2200   15.6750 C   0  0  0  0  0  0  0  0  0  0  0  0
    7.6750    1.3280   12.4250 C   0  0  2  0  0  0  0  0  0  0  0  0
    4.0770  -10.2390   15.8680 C   0  0  0  0  0  0  0  0  0  0  0  0
    4.1020   -9.4480   17.0280 C   0  0  0  0  0  0  0  0  0  0  0  0
    5.6840   -0.6650   16.0960 C   0  0  1  0  0  0  0  0  0  0  0  0
    0.3140    1.9110   11.7940 C   0  0  0  0  0  0  0  0  0  0  0  0
    5.7220    0.4280   13.7310 N   0  3  1  0  0  0  0  0  0  0  0  0
    4.7720    1.2480   12.8660 C   0  0  1  0  0  0  0  0  0  0  0  0
    0.6520   -0.0140   13.1510 C   0  0  0  0  0  0  0  0  0  0  0  0
    5.3510    1.8290   11.5290 C   0  0  0  0  0  0  0  0  0  0  0  0
    1.1310   -0.0950   10.7920 C   0  0  0  0  0  0  0  0  0  0  0  0
    7.3960    2.6190   10.2620 C   0  0  0  0  0  0  0  0  0  0  0  0
    7.6450    1.3320    9.4340 C   0  0  0  0  0  0  0  0  0  0  0  0
    8.4090    0.2550   10.2460 C   0  0  0  0  0  0  0  0  0  0  0  0
    7.7970   -0.0010   11.6430 C   0  0  0  0  0  0  0  0  0  0  0  0
    7.0670    1.1120   13.8130 C   0  0  0  0  0  0  0  0  0  0  0  0
    3.5550    0.4020   12.5840 C   0  0  0  0  0  0  0  0  0  0  0  0
    6.2980   -6.7270   16.3390 H   0  0  0  0  0  0  0  0  0  0  0  0
    7.5390   -4.4420   17.8960 H   0  0  0  0  0  0  0  0  0  0  0  0
    5.2290   -2.2930   14.7730 H   0  0  0  0  0  0  0  0  0  0  0  0
    9.4760   -4.7320   16.0810 H   0  0  0  0  0  0  0  0  0  0  0  0
    8.7850   -6.3250   15.8080 H   0  0  0  0  0  0  0  0  0  0  0  0
    3.0070   -1.5380   15.7080 H   0  0  0  0  0  0  0  0  0  0  0  0
    3.4990   -2.0750   17.2860 H   0  0  0  0  0  0  0  0  0  0  0  0
    2.6440   -3.1910   13.8520 H   0  0  0  0  0  0  0  0  0  0  0  0
    3.5530   -4.4190   17.8740 H   0  0  0  0  0  0  0  0  0  0  0  0
   11.0110   -7.4040   18.3060 H   0  0  0  0  0  0  0  0  0  0  0  0
   10.5200   -7.4700   16.6130 H   0  0  0  0  0  0  0  0  0  0  0  0
    1.9560   -5.5460   13.3020 H   0  0  0  0  0  0  0  0  0  0  0  0
    2.8300   -6.7390   17.3280 H   0  0  0  0  0  0  0  0  0  0  0  0
    2.1190   -7.3140   15.0460 H   0  0  0  0  0  0  0  0  0  0  0  0
    5.2150    1.3420   15.5820 H   0  0  0  0  0  0  0  0  0  0  0  0
    4.0330    0.1650   15.0300 H   0  0  0  0  0  0  0  0  0  0  0  0
    5.7590   -3.1970   17.5750 H   0  0  0  0  0  0  0  0  0  0  0  0
    6.1300    0.0970   17.8330 H   0  0  0  0  0  0  0  0  0  0  0  0
    4.1490   -7.2500   20.1950 H   0  0  0  0  0  0  0  0  0  0  0  0
    6.7890    3.2870   12.2260 H   0  0  0  0  0  0  0  0  0  0  0  0
    2.6440    2.1180   12.0230 H   0  0  0  0  0  0  0  0  0  0  0  0
    2.3320   -8.9710   19.9160 H   0  0  0  0  0  0  0  0  0  0  0  0
    1.3320  -10.7800   18.5740 H   0  0  0  0  0  0  0  0  0  0  0  0
    1.3340  -12.1790   16.5110 H   0  0  0  0  0  0  0  0  0  0  0  0
    3.0870  -11.8290   14.7700 H   0  0  0  0  0  0  0  0  0  0  0  0
    8.6750    1.7650   12.5420 H   0  0  0  0  0  0  0  0  0  0  0  0
    4.8400  -10.0840   15.1100 H   0  0  0  0  0  0  0  0  0  0  0  0
    6.7860   -0.6970   16.0180 H   0  0  0  0  0  0  0  0  0  0  0  0
   -0.7090    1.6060   11.5480 H   0  0  0  0  0  0  0  0  0  0  0  0
    0.2650    2.5240   12.6990 H   0  0  0  0  0  0  0  0  0  0  0  0
    0.6800    2.5190   10.9570 H   0  0  0  0  0  0  0  0  0  0  0  0
    4.4290    2.0780   13.4800 H   0  0  0  0  0  0  0  0  0  0  0  0
   -0.3940   -0.2600   12.9960 H   0  0  0  0  0  0  0  0  0  0  0  0
    1.2060   -0.9470   13.2870 H   0  0  0  0  0  0  0  0  0  0  0  0
    0.7470    0.5830   14.0620 H   0  0  0  0  0  0  0  0  0  0  0  0
    5.2980    1.0680   10.7450 H   0  0  0  0  0  0  0  0  0  0  0  0
    4.7270    2.6470   11.1400 H   0  0  0  0  0  0  0  0  0  0  0  0
    1.4770    0.4850    9.9280 H   0  0  0  0  0  0  0  0  0  0  0  0
    1.8290   -0.9230   10.9280 H   0  0  0  0  0  0  0  0  0  0  0  0
    0.1300   -0.4860   10.5920 H   0  0  0  0  0  0  0  0  0  0  0  0
    8.3410    3.1650   10.3750 H   0  0  0  0  0  0  0  0  0  0  0  0
    6.7350    3.3000    9.7080 H   0  0  0  0  0  0  0  0  0  0  0  0
    8.2030    1.5960    8.5240 H   0  0  0  0  0  0  0  0  0  0  0  0
    6.6920    0.9430    9.0580 H   0  0  0  0  0  0  0  0  0  0  0  0
    9.4370    0.5950   10.3790 H   0  0  0  0  0  0  0  0  0  0  0  0
    8.4650   -0.6780    9.6700 H   0  0  0  0  0  0  0  0  0  0  0  0
    6.8160   -0.4710   11.5180 H   0  0  0  0  0  0  0  0  0  0  0  0
    8.4150   -0.7050   12.2150 H   0  0  0  0  0  0  0  0  0  0  0  0
    6.9190    2.0900   14.2840 H   0  0  0  0  0  0  0  0  0  0  0  0
    7.7420    0.5280   14.4480 H   0  0  0  0  0  0  0  0  0  0  0  0
    5.8070   -0.5020   13.2800 H   0  0  0  0  0  0  0  0  0  0  0  0
  1  2  1  0  0  0  0
  1  4  1  0  0  0  0
  1 50  1  0  0  0  0
  2  6  1  0  0  0  0
  2 19  1  0  0  0  0
  2 51  1  1  0  0  0
  3  7  1  0  0  0  0
  3 23  1  0  0  0  0
  3 37  1  0  0  0  0
  3 52  1  6  0  0  0
  4  5  2  0  0  0  0
  4 22  1  0  0  0  0
  6  8  1  0  0  0  0
  6 53  1  0  0  0  0
  6 54  1  0  0  0  0
  7  9  1  0  0  0  0
  7 55  1  0  0  0  0
  7 56  1  0  0  0  0
  8 13  1  0  0  0  0
  8 14  2  0  0  0  0
  9 11  2  0  0  0  0
  9 12  1  0  0  0  0
 10 27  1  0  0  0  0
 10 38  1  0  0  0  0
 10 41  1  0  0  0  0
 10 43  1  0  0  0  0
 11 15  1  0  0  0  0
 11 57  1  0  0  0  0
 12 16  2  0  0  0  0
 12 58  1  0  0  0  0
 13 59  1  0  0  0  0
 13 60  1  0  0  0  0
 15 17  2  0  0  0  0
 15 61  1  0  0  0  0
 16 17  1  0  0  0  0
 16 62  1  0  0  0  0
 17 63  1  0  0  0  0
 18 37  1  0  0  0  0
 18 39  1  0  0  0  0
 18 64  1  0  0  0  0
 18 65  1  0  0  0  0
 19 21  2  0  0  0  0
 19 23  1  0  0  0  0
 20 22  2  0  0  0  0
 20 36  1  0  0  0  0
 22 25  1  0  0  0  0
 23 66  1  0  0  0  0
 24 37  1  0  0  0  0
 24 67  1  0  0  0  0
 25 29  2  0  0  0  0
 25 68  1  0  0  0  0
 26 34  1  0  0  0  0
 26 42  1  0  0  0  0
 26 44  1  0  0  0  0
 26 69  1  1  0  0  0
 27 49  1  0  0  0  0
 27 70  1  0  0  0  0
 28 49  2  0  0  0  0
 29 30  1  0  0  0  0
 29 71  1  0  0  0  0
 30 31  2  0  0  0  0
 30 36  1  0  0  0  0
 31 32  1  0  0  0  0
 31 72  1  0  0  0  0
 32 33  2  0  0  0  0
 32 73  1  0  0  0  0
 33 35  1  0  0  0  0
 33 74  1  0  0  0  0
 34 47  1  0  0  0  0
 34 48  1  0  0  0  0
 34 75  1  1  0  0  0
 35 36  2  0  0  0  0
 35 76  1  0  0  0  0
 37 77  1  6  0  0  0
 38 78  1  0  0  0  0
 38 79  1  0  0  0  0
 38 80  1  0  0  0  0
 39 40  1  0  0  0  0
 39 48  1  0  0  0  0
 39100  1  6  0  0  0
 40 42  1  0  0  0  0
 40 49  1  0  0  0  0
 40 81  1  1  0  0  0
 41 82  1  0  0  0  0
 41 83  1  0  0  0  0
 41 84  1  0  0  0  0
 42 85  1  0  0  0  0
 42 86  1  0  0  0  0
 43 87  1  0  0  0  0
 43 88  1  0  0  0  0
 43 89  1  0  0  0  0
 44 45  1  0  0  0  0
 44 90  1  0  0  0  0
 44 91  1  0  0  0  0
 45 46  1  0  0  0  0
 45 92  1  0  0  0  0
 45 93  1  0  0  0  0
 46 47  1  0  0  0  0
 46 94  1  0  0  0  0
 46 95  1  0  0  0  0
 47 96  1  0  0  0  0
 47 97  1  0  0  0  0
 48 98  1  0  0  0  0
 48 99  1  0  0  0  0
M  CHG  1  39   1
M  END
>  <charge>
1

>  <KI_NM>
0.04

>  <number_of_rotatable_bonds>
16

>  <lm5_entropy_jk>
41.473308753000644

>  <ligand_crystal_conformation>
A

$$$$
