2OXX
 OpenBabel11252210453D

 16 17  0  0  1  0  0  0  0  0999 V2000
   21.5560    8.5080   19.5750 C   0  0  0  0  0  0  0  0  0  0  0  0
   21.2220    8.2460   20.9260 C   0  0  0  0  0  0  0  0  0  0  0  0
   21.7740    7.1610   21.6060 C   0  0  0  0  0  0  0  0  0  0  0  0
   22.4950    7.7210   18.9050 C   0  0  0  0  0  0  0  0  0  0  0  0
   23.3540    5.1760   21.3220 N   0  0  0  0  0  0  0  0  0  0  0  0
   23.0320    6.6150   19.5700 C   0  0  0  0  0  0  0  0  0  0  0  0
   22.6620    6.3320   20.9220 C   0  0  0  0  0  0  0  0  0  0  0  0
   25.1700    3.3680   20.2550 S   0  0  0  0  0  0  0  0  0  0  0  0
   24.1540    4.7070   20.2430 C   0  0  0  0  0  0  0  0  0  0  0  0
   23.9460    5.6220   19.1730 N   0  0  0  0  0  0  0  0  0  0  0  0
   23.1430    8.0210   17.1610 Br  0  0  0  0  0  0  0  0  0  0  0  0
   20.7010    9.9220   18.6410 Br  0  0  0  0  0  0  0  0  0  0  0  0
   20.0070    9.3600   21.8520 Br  0  0  0  0  0  0  0  0  0  0  0  0
   21.4170    6.6610   23.3870 Br  0  0  0  0  0  0  0  0  0  0  0  0
   23.2020    4.6990   22.2150 H   0  0  0  0  0  0  0  0  0  0  0  0
   24.3690    5.5660   18.2430 H   0  0  0  0  0  0  0  0  0  0  0  0
  1  2  2  0  0  0  0
  1  4  1  0  0  0  0
  1 12  1  0  0  0  0
  2  3  1  0  0  0  0
  2 13  1  0  0  0  0
  3  7  2  0  0  0  0
  3 14  1  0  0  0  0
  4  6  2  0  0  0  0
  4 11  1  0  0  0  0
  5  7  1  0  0  0  0
  5  9  1  0  0  0  0
  5 15  1  0  0  0  0
  6  7  1  0  0  0  0
  6 10  1  0  0  0  0
  8  9  2  0  0  0  0
  9 10  1  0  0  0  0
 10 16  1  0  0  0  0
M  END
>  <charge>
0

>  <Ki_NM>
200

>  <number_of_rotatable_bonds>
0

>  <lm5_entropy_jk>
7.2278

$$$$
