3R8Z
 OpenBabel11252210453D

 30 31  0  0  1  0  0  0  0  0999 V2000
   65.8050  154.5310  -50.5350 N   0  0  0  0  0  0  0  0  0  0  0  0
   67.2430  153.4890  -52.0020 N   0  0  0  0  0  0  0  0  0  0  0  0
   69.0140  149.1090  -46.5000 N   0  0  0  0  0  0  0  0  0  0  0  0
   64.4750  155.2830  -48.7890 N   0  0  0  0  0  0  0  0  0  0  0  0
   66.8170  153.6360  -50.7550 C   0  0  0  0  0  0  0  0  0  0  0  0
   67.2610  152.9140  -49.6930 C   0  0  0  0  0  0  0  0  0  0  0  0
   68.3190  151.8920  -49.7850 C   0  0  0  0  0  0  0  0  0  0  0  0
   68.5440  150.9460  -48.6100 C   0  0  0  0  0  0  0  0  0  0  0  0
   67.4890  150.4110  -47.8360 C   0  0  0  0  0  0  0  0  0  0  0  0
   67.7640  149.5170  -46.7890 C   0  0  0  0  0  0  0  0  0  0  0  0
   70.0290  149.5690  -47.2560 C   0  0  0  0  0  0  0  0  0  0  0  0
   69.8400  150.4820  -48.3090 C   0  0  0  0  0  0  0  0  0  0  0  0
   65.4750  154.4850  -49.2610 C   0  0  0  0  0  0  0  0  0  0  0  0
   63.9650  155.2660  -47.4000 C   0  0  0  0  0  0  0  0  0  0  0  0
   63.0230  154.1050  -47.2060 C   0  0  0  0  0  0  0  0  0  0  0  0
   62.7720  153.5830  -46.0030 C   0  0  0  0  0  0  0  0  0  0  0  0
   68.9980  151.7910  -50.7950 O   0  0  0  0  0  0  0  0  0  0  0  0
   66.3400  153.3270  -48.2770 S   0  0  0  0  0  0  0  0  0  0  0  0
   67.0130  154.1970  -52.6890 H   0  0  0  0  0  0  0  0  0  0  0  0
   68.0800  152.9280  -52.0850 H   0  0  0  0  0  0  0  0  0  0  0  0
   66.4590  150.6700  -48.0500 H   0  0  0  0  0  0  0  0  0  0  0  0
   66.9560  149.1050  -46.1730 H   0  0  0  0  0  0  0  0  0  0  0  0
   71.0200  149.1780  -47.0180 H   0  0  0  0  0  0  0  0  0  0  0  0
   70.6870  150.8220  -48.9030 H   0  0  0  0  0  0  0  0  0  0  0  0
   63.8480  155.6240  -49.5150 H   0  0  0  0  0  0  0  0  0  0  0  0
   63.4320  156.2040  -47.1760 H   0  0  0  0  0  0  0  0  0  0  0  0
   64.7940  155.1930  -46.6880 H   0  0  0  0  0  0  0  0  0  0  0  0
   62.5470  153.7090  -48.1090 H   0  0  0  0  0  0  0  0  0  0  0  0
   63.2380  153.9700  -45.0950 H   0  0  0  0  0  0  0  0  0  0  0  0
   62.0960  152.7430  -45.8730 H   0  0  0  0  0  0  0  0  0  0  0  0
  1  5  1  0  0  0  0
  1 13  2  0  0  0  0
  2  5  1  0  0  0  0
  2 19  1  0  0  0  0
  2 20  1  0  0  0  0
  3 10  2  0  0  0  0
  3 11  1  0  0  0  0
  4 13  1  0  0  0  0
  4 14  1  0  0  0  0
  4 25  1  0  0  0  0
  5  6  2  0  0  0  0
  6 18  1  0  0  0  0
  7  6  1  0  0  0  0
  7  8  1  0  0  0  0
  7 17  2  0  0  0  0
  8  9  2  0  0  0  0
  8 12  1  0  0  0  0
  9 10  1  0  0  0  0
  9 21  1  0  0  0  0
 10 22  1  0  0  0  0
 11 12  2  0  0  0  0
 11 23  1  0  0  0  0
 12 24  1  0  0  0  0
 13 18  1  0  0  0  0
 14 15  1  0  0  0  0
 14 26  1  0  0  0  0
 14 27  1  0  0  0  0
 15 16  2  0  0  0  0
 15 28  1  0  0  0  0
 16 29  1  0  0  0  0
 16 30  1  0  0  0  0
M  END
>  <lm5_entropy_jk>
22.952794734129974

>  <number_of_rotatable_bonds>
5

>  <IC50_NM>
49000

>  <charge>
0

$$$$
