3n2u.pdb
 OpenBabel11252210453D

 57 58  0  0  1  0  0  0  0  0999 V2000
    7.6850   28.8070   -1.8220 C   0  0  1  0  0  0  0  0  0  0  0  0
    8.5410   23.7760    1.3420 N   0  0  0  0  0  0  0  0  0  0  0  0
    6.9450   24.7930    0.0740 O   0  0  0  0  0  0  0  0  0  0  0  0
    8.0330   26.6560    3.8260 S   0  0  0  0  0  0  0  0  0  0  0  0
    8.1430   27.7660   -2.8780 C   0  0  2  0  0  0  0  0  0  0  0  0
    7.7810   26.8850    2.1380 N   0  0  0  0  0  0  0  0  0  0  0  0
    9.4160   26.2150    4.0340 O   0  0  0  0  0  0  0  0  0  0  0  0
    7.9600   24.9300    0.7290 C   0  0  0  0  0  0  0  0  0  0  0  0
    7.6500   27.8780    4.5190 O   0  0  0  0  0  0  0  0  0  0  0  0
    4.8760   30.5410   -3.4820 C   0  0  0  0  0  0  0  0  0  0  0  0
    9.4130   27.2340   -2.5390 O   0  0  0  0  0  0  0  0  0  0  0  0
    6.3320   30.0230   -3.4090 C   0  0  2  0  0  0  0  0  0  0  0  0
    8.2570   27.2880   -5.1840 O   0  0  0  0  0  0  0  0  0  0  0  0
    6.7350   29.0820   -4.5680 C   0  0  1  0  0  0  0  0  0  0  0  0
    6.7800   29.7780   -5.8160 O   0  0  0  0  0  0  0  0  0  0  0  0
    8.1100   28.4030   -4.2910 C   0  0  1  0  0  0  0  0  0  0  0  0
    4.6310   22.2290    5.5750 O   0  0  0  0  0  0  0  0  0  0  0  0
    7.5560   28.9040    0.5780 C   0  0  0  0  0  0  0  0  0  0  0  0
    6.3430   29.2390   -2.1940 O   0  0  0  0  0  0  0  0  0  0  0  0
    6.9590   28.0340    1.6870 C   0  0  0  0  0  0  0  0  0  0  0  0
    4.0250   29.7720   -2.6290 O   0  0  0  0  0  0  0  0  0  0  0  0
    8.6630   26.2150    1.1740 C   0  0  0  0  0  0  0  0  0  0  0  0
    7.4310   28.0860   -0.6340 O   0  0  0  0  0  0  0  0  0  0  0  0
    6.5790   23.0110    4.5970 C   0  0  0  0  0  0  0  0  0  0  0  0
    8.0380   22.5970    0.7540 O   0  0  0  0  0  0  0  0  0  0  0  0
    6.9620   25.3800    4.2240 C   0  0  0  0  0  0  0  0  0  0  0  0
    5.6350   25.6480    4.5870 C   0  0  0  0  0  0  0  0  0  0  0  0
    7.4140   24.0450    4.2030 C   0  0  0  0  0  0  0  0  0  0  0  0
    4.7870   24.6300    5.0230 C   0  0  0  0  0  0  0  0  0  0  0  0
    5.2830   23.3170    5.0710 C   0  0  0  0  0  0  0  0  0  0  0  0
    3.2630   22.3690    6.0440 C   0  0  0  0  0  0  0  0  0  0  0  0
    8.3480   29.6860   -1.6910 H   0  0  0  0  0  0  0  0  0  0  0  0
    9.5770   23.6850    1.4600 H   0  0  0  0  0  0  0  0  0  0  0  0
    7.4810   26.8680   -2.8480 H   0  0  0  0  0  0  0  0  0  0  0  0
    4.8510   31.6130   -3.1620 H   0  0  0  0  0  0  0  0  0  0  0  0
    4.4470   30.4240   -4.5040 H   0  0  0  0  0  0  0  0  0  0  0  0
   10.1020   27.9570   -2.5270 H   0  0  0  0  0  0  0  0  0  0  0  0
    7.0510   30.8750   -3.3130 H   0  0  0  0  0  0  0  0  0  0  0  0
    8.3320   27.6450   -6.1160 H   0  0  0  0  0  0  0  0  0  0  0  0
    5.9460   28.3110   -4.7530 H   0  0  0  0  0  0  0  0  0  0  0  0
    7.3440   30.5950   -5.7370 H   0  0  0  0  0  0  0  0  0  0  0  0
    8.9470   29.1280   -4.4370 H   0  0  0  0  0  0  0  0  0  0  0  0
    6.9600   29.8370    0.4490 H   0  0  0  0  0  0  0  0  0  0  0  0
    8.6320   29.1400    0.7310 H   0  0  0  0  0  0  0  0  0  0  0  0
    5.9720   27.6430    1.3190 H   0  0  0  0  0  0  0  0  0  0  0  0
    6.7650   28.7200    2.5660 H   0  0  0  0  0  0  0  0  0  0  0  0
    4.4540   29.7660   -1.7230 H   0  0  0  0  0  0  0  0  0  0  0  0
    8.8580   26.8470    0.2530 H   0  0  0  0  0  0  0  0  0  0  0  0
    9.6700   26.0060    1.6430 H   0  0  0  0  0  0  0  0  0  0  0  0
    6.9090   21.9730    4.5220 H   0  0  0  0  0  0  0  0  0  0  0  0
    8.2900   21.8560    1.5120 H   0  0  0  0  0  0  0  0  0  0  0  0
    5.2380   26.6690    4.5410 H   0  0  0  0  0  0  0  0  0  0  0  0
    8.4340   23.8040    3.8700 H   0  0  0  0  0  0  0  0  0  0  0  0
    3.7620   24.8630    5.3070 H   0  0  0  0  0  0  0  0  0  0  0  0
    3.0330   21.3170    6.3410 H   0  0  0  0  0  0  0  0  0  0  0  0
    2.6070   22.7100    5.2140 H   0  0  0  0  0  0  0  0  0  0  0  0
    3.2290   23.0550    6.9150 H   0  0  0  0  0  0  0  0  0  0  0  0
  1  5  1  0  0  0  0
  1 19  1  0  0  0  0
  1 23  1  0  0  0  0
  1 32  1  1  0  0  0
  2 25  1  0  0  0  0
  2  8  1  0  0  0  0
  2 33  1  0  0  0  0
  3  8  2  0  0  0  0
  4  6  1  0  0  0  0
  4  7  2  0  0  0  0
  4 26  1  0  0  0  0
  4  9  2  0  0  0  0
  5 16  1  0  0  0  0
  5 11  1  0  0  0  0
  5 34  1  6  0  0  0
  6 22  1  0  0  0  0
  6 20  1  0  0  0  0
  8 22  1  0  0  0  0
 10 21  1  0  0  0  0
 10 12  1  0  0  0  0
 10 35  1  0  0  0  0
 10 36  1  0  0  0  0
 11 37  1  0  0  0  0
 12 14  1  0  0  0  0
 12 19  1  0  0  0  0
 12 38  1  1  0  0  0
 13 16  1  0  0  0  0
 13 39  1  0  0  0  0
 14 15  1  0  0  0  0
 14 16  1  0  0  0  0
 14 40  1  6  0  0  0
 15 41  1  0  0  0  0
 16 42  1  1  0  0  0
 17 30  1  0  0  0  0
 17 31  1  0  0  0  0
 18 23  1  0  0  0  0
 18 20  1  0  0  0  0
 18 43  1  0  0  0  0
 18 44  1  0  0  0  0
 20 45  1  0  0  0  0
 20 46  1  0  0  0  0
 21 47  1  0  0  0  0
 22 48  1  0  0  0  0
 22 49  1  0  0  0  0
 24 28  2  0  0  0  0
 24 30  1  0  0  0  0
 24 50  1  0  0  0  0
 25 51  1  0  0  0  0
 26 28  1  0  0  0  0
 26 27  2  0  0  0  0
 27 29  1  0  0  0  0
 27 52  1  0  0  0  0
 28 53  1  0  0  0  0
 29 30  2  0  0  0  0
 29 54  1  0  0  0  0
 31 55  1  0  0  0  0
 31 56  1  0  0  0  0
 31 57  1  0  0  0  0
M  END
>  <COMPND>
3n2u.pdb

>  <AUTHOR>
GENERATED BY OPEN BABEL 2.3.1

>  <MASTER>
0    0    0    0    0    0    0    0   57    0   57    0

>  <lm5_entropy_jk>
36.459690472520535

>  <number_of_rotatable_bonds>
11

>  <deltaG_kcalmol>
-10.71

>  <charge>
0

$$$$
