3LK8
 OpenBabel11252210453D

 29 29  0  0  0  0  0  0  0  0999 V2000
    5.4680   25.5090    4.6670 C   0  0  0  0  0  0  0  0  0  0  0  0
    7.6400   26.8040    2.2170 N   0  0  0  0  0  0  0  0  0  0  0  0
    9.2130   26.3040    4.2480 O   0  0  0  0  0  0  0  0  0  0  0  0
    7.8230   26.6320    3.9310 S   0  0  0  0  0  0  0  0  0  0  0  0
    4.6690   24.4530    5.1040 C   0  0  0  0  0  0  0  0  0  0  0  0
    8.6510   23.7320    1.3380 N   0  0  0  0  0  0  0  0  0  0  0  0
    7.3060   27.8820    4.4940 O   0  0  0  0  0  0  0  0  0  0  0  0
    6.8100   25.3060    4.3140 C   0  0  0  0  0  0  0  0  0  0  0  0
    4.6330   22.0570    5.6840 O   0  0  0  0  0  0  0  0  0  0  0  0
    5.2290   23.1670    5.1640 C   0  0  0  0  0  0  0  0  0  0  0  0
    6.9700   24.7310    0.1550 O   0  0  0  0  0  0  0  0  0  0  0  0
    6.5370   22.9200    4.6850 C   0  0  0  0  0  0  0  0  0  0  0  0
    8.2030   22.5550    0.7030 O   0  0  0  0  0  0  0  0  0  0  0  0
    7.3220   23.9920    4.2870 C   0  0  0  0  0  0  0  0  0  0  0  0
    8.6240   26.1820    1.3130 C   0  0  0  0  0  0  0  0  0  0  0  0
    7.9900   24.8800    0.8020 C   0  0  0  0  0  0  0  0  0  0  0  0
    3.2520   22.1280    6.1320 C   0  0  0  0  0  0  0  0  0  0  0  0
    5.0170   26.5080    4.6110 H   0  0  0  0  0  0  0  0  0  0  0  0
    7.3300   27.7310    1.8710 H   0  0  0  0  0  0  0  0  0  0  0  0
    3.6300   24.6320    5.3730 H   0  0  0  0  0  0  0  0  0  0  0  0
    9.6930   23.6900    1.4240 H   0  0  0  0  0  0  0  0  0  0  0  0
    6.9140   21.8980    4.6120 H   0  0  0  0  0  0  0  0  0  0  0  0
    8.4150   21.8120    1.4680 H   0  0  0  0  0  0  0  0  0  0  0  0
    8.3470   23.7930    3.9430 H   0  0  0  0  0  0  0  0  0  0  0  0
    8.8590   26.8410    0.4270 H   0  0  0  0  0  0  0  0  0  0  0  0
    9.6110   25.9820    1.8280 H   0  0  0  0  0  0  0  0  0  0  0  0
    3.0750   21.0650    6.4270 H   0  0  0  0  0  0  0  0  0  0  0  0
    2.5930   22.4300    5.2900 H   0  0  0  0  0  0  0  0  0  0  0  0
    3.1720   22.8140    7.0000 H   0  0  0  0  0  0  0  0  0  0  0  0
  1  8  2  0  0  0  0
  1  5  1  0  0  0  0
  1 18  1  0  0  0  0
  2 15  1  0  0  0  0
  2  4  1  0  0  0  0
  2 19  1  0  0  0  0
  3  4  2  0  0  0  0
  4  8  1  0  0  0  0
  4  7  2  0  0  0  0
  5 10  2  0  0  0  0
  5 20  1  0  0  0  0
  6 13  1  0  0  0  0
  6 16  1  0  0  0  0
  6 21  1  0  0  0  0
  8 14  1  0  0  0  0
  9 10  1  0  0  0  0
  9 17  1  0  0  0  0
 10 12  1  0  0  0  0
 11 16  2  0  0  0  0
 12 14  2  0  0  0  0
 12 22  1  0  0  0  0
 13 23  1  0  0  0  0
 14 24  1  0  0  0  0
 15 16  1  0  0  0  0
 15 25  1  0  0  0  0
 15 26  1  0  0  0  0
 17 27  1  0  0  0  0
 17 28  1  0  0  0  0
 17 29  1  0  0  0  0
M  END
>  <lm5_entropy_jk>
30.773132133652176

>  <number_of_rotatable_bonds>
6

>  <deltaG_kcalmol>
-10.52

>  <charge>
0

$$$$
