3f16.pdb
 OpenBabel11252210453D

 33 33  0  0  1  0  0  0  0  0999 V2000
    7.2930   23.9870    4.3300 C   0  0  0  0  0  0  0  0  0  0  0  0
    8.6420   23.7630    1.3440 N   0  0  0  0  0  0  0  0  0  0  0  0
    7.2820   27.8800    4.5600 O   0  0  0  0  0  0  0  0  0  0  0  0
    7.7970   26.6300    4.0020 S   0  0  0  0  0  0  0  0  0  0  0  0
    6.5090   22.9110    4.7180 C   0  0  0  0  0  0  0  0  0  0  0  0
    7.6090   26.7810    2.2840 N   0  0  0  0  0  0  0  0  0  0  0  0
    9.1920   26.3030    4.2940 O   0  0  0  0  0  0  0  0  0  0  0  0
    6.7890   25.3030    4.3910 C   0  0  0  0  0  0  0  0  0  0  0  0
    6.9540   24.7670    0.1790 O   0  0  0  0  0  0  0  0  0  0  0  0
    5.2070   23.1530    5.2160 C   0  0  0  0  0  0  0  0  0  0  0  0
    7.9760   27.3440   -0.7160 O   0  0  0  0  0  0  0  0  0  0  0  0
    4.6560   24.4440    5.1970 C   0  0  0  0  0  0  0  0  0  0  0  0
    4.6050   22.0340    5.7080 O   0  0  0  0  0  0  0  0  0  0  0  0
    5.4540   25.5060    4.7730 C   0  0  0  0  0  0  0  0  0  0  0  0
    8.1790   22.5930    0.7050 O   0  0  0  0  0  0  0  0  0  0  0  0
    9.0460   27.1540    0.2210 C   0  0  0  0  0  0  0  0  0  0  0  0
    7.9730   24.9180    0.8190 C   0  0  0  0  0  0  0  0  0  0  0  0
    8.6170   26.2130    1.3750 C   0  0  2  0  0  0  0  0  0  0  0  0
    3.2300   22.1040    6.1750 C   0  0  0  0  0  0  0  0  0  0  0  0
    8.3120   23.7890    3.9660 H   0  0  0  0  0  0  0  0  0  0  0  0
    9.6840   23.7140    1.4120 H   0  0  0  0  0  0  0  0  0  0  0  0
    6.8810   21.8890    4.6220 H   0  0  0  0  0  0  0  0  0  0  0  0
    7.1730   27.6510    1.9350 H   0  0  0  0  0  0  0  0  0  0  0  0
    7.6150   28.2680   -0.6020 H   0  0  0  0  0  0  0  0  0  0  0  0
    3.6240   24.6250    5.4890 H   0  0  0  0  0  0  0  0  0  0  0  0
    5.0100   26.5080    4.7480 H   0  0  0  0  0  0  0  0  0  0  0  0
    8.3990   21.8430    1.4630 H   0  0  0  0  0  0  0  0  0  0  0  0
    9.3920   28.1320    0.6320 H   0  0  0  0  0  0  0  0  0  0  0  0
    9.8690   26.6750   -0.3720 H   0  0  0  0  0  0  0  0  0  0  0  0
    9.5680   25.9630    1.9490 H   0  0  0  0  0  0  0  0  0  0  0  0
    3.0470   21.0350    6.4410 H   0  0  0  0  0  0  0  0  0  0  0  0
    2.5650   22.4360    5.3490 H   0  0  0  0  0  0  0  0  0  0  0  0
    3.1660   22.7660    7.0620 H   0  0  0  0  0  0  0  0  0  0  0  0
  1  8  2  0  0  0  0
  1  5  1  0  0  0  0
  1 20  1  0  0  0  0
  2 15  1  0  0  0  0
  2 17  1  0  0  0  0
  2 21  1  0  0  0  0
  3  4  2  0  0  0  0
  4  6  1  0  0  0  0
  4  7  2  0  0  0  0
  4  8  1  0  0  0  0
  5 10  2  0  0  0  0
  5 22  1  0  0  0  0
  6 18  1  0  0  0  0
  6 23  1  0  0  0  0
  8 14  1  0  0  0  0
  9 17  2  0  0  0  0
 10 12  1  0  0  0  0
 10 13  1  0  0  0  0
 11 16  1  0  0  0  0
 11 24  1  0  0  0  0
 12 14  2  0  0  0  0
 12 25  1  0  0  0  0
 13 19  1  0  0  0  0
 14 26  1  0  0  0  0
 15 27  1  0  0  0  0
 16 18  1  0  0  0  0
 16 28  1  0  0  0  0
 16 29  1  0  0  0  0
 17 18  1  0  0  0  0
 18 30  1  1  0  0  0
 19 31  1  0  0  0  0
 19 32  1  0  0  0  0
 19 33  1  0  0  0  0
M  END
>  <COMPND>
3f16.pdb

>  <AUTHOR>
GENERATED BY OPEN BABEL 2.3.1

>  <MASTER>
0    0    0    0    0    0    0    0   33    0   33    0

>  <lm5_entropy_jk>
30.537322729053685

>  <number_of_rotatable_bonds>
7

>  <deltaG_kcalmol>
-11.24

>  <charge>
0

$$$$
