3OXC
 OpenBabel11252210453D

100104  0  0  1  0  0  0  0  0999 V2000
    6.3420   -6.5430   17.1280 N   0  0  0  0  0  0  0  0  0  0  0  0
    7.0430   -5.2490   17.1430 C   0  0  1  0  0  0  0  0  0  0  0  0
    5.1290   -2.1230   15.9290 C   0  0  2  0  0  0  0  0  0  0  0  0
    6.0290   -7.1810   18.3430 C   0  0  0  0  0  0  0  0  0  0  0  0
    6.4760   -6.7920   19.4040 O   0  0  0  0  0  0  0  0  0  0  0  0
    8.5260   -5.3160   16.7460 C   0  0  0  0  0  0  0  0  0  0  0  0
    3.6300   -2.2310   16.2720 C   0  0  0  0  0  0  0  0  0  0  0  0
    9.3610   -5.9620   17.8460 C   0  0  0  0  0  0  0  0  0  0  0  0
    3.1500   -3.6580   16.2580 C   0  0  0  0  0  0  0  0  0  0  0  0
    1.4700    0.4330   11.9900 C   0  0  0  0  0  0  0  0  0  0  0  0
    2.7170   -4.2760   15.0770 C   0  0  0  0  0  0  0  0  0  0  0  0
    3.1350   -4.3790   17.4630 C   0  0  0  0  0  0  0  0  0  0  0  0
   10.0530   -7.1090   17.4730 N   0  0  0  0  0  0  0  0  0  0  0  0
    9.4340   -5.5260   18.9830 O   0  0  0  0  0  0  0  0  0  0  0  0
    2.2930   -5.6090   15.1050 C   0  0  0  0  0  0  0  0  0  0  0  0
    2.7110   -5.7070   17.4820 C   0  0  0  0  0  0  0  0  0  0  0  0
    2.3090   -6.3340   16.2990 C   0  0  0  0  0  0  0  0  0  0  0  0
    5.3010    0.4270   15.3380 C   0  0  0  0  0  0  0  0  0  0  0  0
    6.3170   -4.3240   16.1260 C   0  0  0  0  0  0  0  0  0  0  0  0
    5.0910   -9.1750   17.2530 N   0  0  0  0  0  0  0  0  0  0  0  0
    6.1460   -4.5280   14.9400 O   0  0  0  0  0  0  0  0  0  0  0  0
    4.9980   -8.2890   18.2410 C   0  0  0  0  0  0  0  0  0  0  0  0
    5.9460   -3.0910   16.7010 N   0  0  0  0  0  0  0  0  0  0  0  0
    5.2310   -0.3880   17.5660 O   0  0  0  0  0  0  0  0  0  0  0  0
    3.9530   -8.3020   19.2210 C   0  0  0  0  0  0  0  0  0  0  0  0
    7.3460    1.8980   11.7680 C   0  0  2  0  0  0  0  0  0  0  0  0
    2.8570    0.9960   12.2650 N   0  0  0  0  0  0  0  0  0  0  0  0
    3.9980   -0.9550   12.8470 O   0  0  0  0  0  0  0  0  0  0  0  0
    2.9630   -9.2470   19.1140 C   0  0  0  0  0  0  0  0  0  0  0  0
    3.0010  -10.1950   18.0460 C   0  0  0  0  0  0  0  0  0  0  0  0
    1.9910  -11.1880   17.8580 C   0  0  0  0  0  0  0  0  0  0  0  0
    2.0780  -12.0700   16.8110 C   0  0  0  0  0  0  0  0  0  0  0  0
    3.1760  -12.0130   15.9000 C   0  0  0  0  0  0  0  0  0  0  0  0
    8.1530    1.0720   12.7960 C   0  0  2  0  0  0  0  0  0  0  0  0
    4.1680  -11.0780   16.0510 C   0  0  0  0  0  0  0  0  0  0  0  0
    4.0950  -10.1380   17.1320 C   0  0  0  0  0  0  0  0  0  0  0  0
    5.7340   -0.7300   16.2770 C   0  0  1  0  0  0  0  0  0  0  0  0
    0.5250    1.6360   11.8630 C   0  0  0  0  0  0  0  0  0  0  0  0
    6.0370    0.4220   14.0010 N   0  3  1  0  0  0  0  0  0  0  0  0
    5.1960    1.1330   12.9390 C   0  0  1  0  0  0  0  0  0  0  0  0
    1.1070   -0.4390   13.1970 C   0  0  0  0  0  0  0  0  0  0  0  0
    5.9280    1.3220   11.6060 C   0  0  0  0  0  0  0  0  0  0  0  0
    1.5300   -0.3440   10.6690 C   0  0  0  0  0  0  0  0  0  0  0  0
    8.0510    1.9350   10.3990 C   0  0  0  0  0  0  0  0  0  0  0  0
    8.4590    0.5410    9.9050 C   0  0  0  0  0  0  0  0  0  0  0  0
    9.2540   -0.2360   10.9630 C   0  0  0  0  0  0  0  0  0  0  0  0
    8.4530   -0.3450   12.2720 C   0  0  0  0  0  0  0  0  0  0  0  0
    7.3990    1.0930   14.1390 C   0  0  0  0  0  0  0  0  0  0  0  0
    3.9380    0.2570   12.6650 C   0  0  0  0  0  0  0  0  0  0  0  0
    6.3910   -7.0710   16.2340 H   0  0  0  0  0  0  0  0  0  0  0  0
    6.9500   -4.8060   18.1820 H   0  0  0  0  0  0  0  0  0  0  0  0
    5.2830   -2.2970   14.8370 H   0  0  0  0  0  0  0  0  0  0  0  0
    8.9140   -4.2730   16.5790 H   0  0  0  0  0  0  0  0  0  0  0  0
    8.6250   -5.8490   15.7640 H   0  0  0  0  0  0  0  0  0  0  0  0
    3.0350   -1.6050   15.5650 H   0  0  0  0  0  0  0  0  0  0  0  0
    3.4760   -1.8050   17.2990 H   0  0  0  0  0  0  0  0  0  0  0  0
    2.6800   -3.7010   14.1540 H   0  0  0  0  0  0  0  0  0  0  0  0
    3.4430   -3.8950   18.3890 H   0  0  0  0  0  0  0  0  0  0  0  0
   10.7160   -7.5690   18.1340 H   0  0  0  0  0  0  0  0  0  0  0  0
   10.0120   -7.4830   16.5320 H   0  0  0  0  0  0  0  0  0  0  0  0
    1.9210   -6.0810   14.2000 H   0  0  0  0  0  0  0  0  0  0  0  0
    2.6690   -6.2400   18.4340 H   0  0  0  0  0  0  0  0  0  0  0  0
    1.9820   -7.3730   16.3230 H   0  0  0  0  0  0  0  0  0  0  0  0
    5.5640    1.3940   15.8540 H   0  0  0  0  0  0  0  0  0  0  0  0
    4.1920    0.3910   15.1740 H   0  0  0  0  0  0  0  0  0  0  0  0
    5.8050   -3.0160   17.7290 H   0  0  0  0  0  0  0  0  0  0  0  0
    5.9640    0.1870   18.0470 H   0  0  0  0  0  0  0  0  0  0  0  0
    3.9440   -7.5680   20.0340 H   0  0  0  0  0  0  0  0  0  0  0  0
    7.2570    2.9480   12.1500 H   0  0  0  0  0  0  0  0  0  0  0  0
    3.0080    1.9690   11.9770 H   0  0  0  0  0  0  0  0  0  0  0  0
    2.1350   -9.2820   19.8320 H   0  0  0  0  0  0  0  0  0  0  0  0
    1.1510  -11.2290   18.5610 H   0  0  0  0  0  0  0  0  0  0  0  0
    1.3080  -12.8350   16.6570 H   0  0  0  0  0  0  0  0  0  0  0  0
    3.2060  -12.7360   15.0770 H   0  0  0  0  0  0  0  0  0  0  0  0
    9.1270    1.5940   12.9810 H   0  0  0  0  0  0  0  0  0  0  0  0
    5.0150  -11.0370   15.3600 H   0  0  0  0  0  0  0  0  0  0  0  0
    6.8510   -0.7880   16.3070 H   0  0  0  0  0  0  0  0  0  0  0  0
   -0.5240    1.2760   11.7450 H   0  0  0  0  0  0  0  0  0  0  0  0
    0.5630    2.2730   12.7700 H   0  0  0  0  0  0  0  0  0  0  0  0
    0.7820    2.2540   10.9720 H   0  0  0  0  0  0  0  0  0  0  0  0
    4.9390    2.1500   13.3470 H   0  0  0  0  0  0  0  0  0  0  0  0
    0.0150   -0.6310   13.2150 H   0  0  0  0  0  0  0  0  0  0  0  0
    1.6590   -1.4070   13.1580 H   0  0  0  0  0  0  0  0  0  0  0  0
    1.3860    0.0850   14.1390 H   0  0  0  0  0  0  0  0  0  0  0  0
    5.9930    0.3620   11.0480 H   0  0  0  0  0  0  0  0  0  0  0  0
    5.3310    2.0370   10.9800 H   0  0  0  0  0  0  0  0  0  0  0  0
    1.9360    0.3170    9.8680 H   0  0  0  0  0  0  0  0  0  0  0  0
    2.1970   -1.2250   10.7710 H   0  0  0  0  0  0  0  0  0  0  0  0
    0.5090   -0.6670   10.3790 H   0  0  0  0  0  0  0  0  0  0  0  0
    8.9490    2.5840   10.4790 H   0  0  0  0  0  0  0  0  0  0  0  0
    7.3600    2.4020    9.6550 H   0  0  0  0  0  0  0  0  0  0  0  0
    9.0700    0.6660    8.9880 H   0  0  0  0  0  0  0  0  0  0  0  0
    7.5430   -0.0310    9.6320 H   0  0  0  0  0  0  0  0  0  0  0  0
   10.2200    0.2840   11.1550 H   0  0  0  0  0  0  0  0  0  0  0  0
    9.4780   -1.2560   10.5850 H   0  0  0  0  0  0  0  0  0  0  0  0
    7.5110   -0.8920   12.0510 H   0  0  0  0  0  0  0  0  0  0  0  0
    9.0230   -0.9130   13.0390 H   0  0  0  0  0  0  0  0  0  0  0  0
    7.2430    2.1630   14.4600 H   0  0  0  0  0  0  0  0  0  0  0  0
    7.9870    0.5860   14.9560 H   0  0  0  0  0  0  0  0  0  0  0  0
    6.1950   -0.5660   13.6830 H   0  0  0  0  0  0  0  0  0  0  0  0
  1  2  1  0  0  0  0
  1  4  1  0  0  0  0
  1 50  1  0  0  0  0
  2  6  1  0  0  0  0
  2 19  1  0  0  0  0
  2 51  1  1  0  0  0
  3  7  1  0  0  0  0
  3 23  1  0  0  0  0
  3 37  1  0  0  0  0
  3 52  1  6  0  0  0
  4  5  2  0  0  0  0
  4 22  1  0  0  0  0
  6  8  1  0  0  0  0
  6 53  1  0  0  0  0
  6 54  1  0  0  0  0
  7  9  1  0  0  0  0
  7 55  1  0  0  0  0
  7 56  1  0  0  0  0
  8 13  1  0  0  0  0
  8 14  2  0  0  0  0
  9 11  2  0  0  0  0
  9 12  1  0  0  0  0
 10 27  1  0  0  0  0
 10 38  1  0  0  0  0
 10 41  1  0  0  0  0
 10 43  1  0  0  0  0
 11 15  1  0  0  0  0
 11 57  1  0  0  0  0
 12 16  2  0  0  0  0
 12 58  1  0  0  0  0
 13 59  1  0  0  0  0
 13 60  1  0  0  0  0
 15 17  2  0  0  0  0
 15 61  1  0  0  0  0
 16 17  1  0  0  0  0
 16 62  1  0  0  0  0
 17 63  1  0  0  0  0
 18 37  1  0  0  0  0
 18 39  1  0  0  0  0
 18 64  1  0  0  0  0
 18 65  1  0  0  0  0
 19 21  2  0  0  0  0
 19 23  1  0  0  0  0
 20 22  2  0  0  0  0
 20 36  1  0  0  0  0
 22 25  1  0  0  0  0
 23 66  1  0  0  0  0
 24 37  1  0  0  0  0
 24 67  1  0  0  0  0
 25 29  2  0  0  0  0
 25 68  1  0  0  0  0
 26 34  1  0  0  0  0
 26 42  1  0  0  0  0
 26 44  1  0  0  0  0
 26 69  1  1  0  0  0
 27 49  1  0  0  0  0
 27 70  1  0  0  0  0
 28 49  2  0  0  0  0
 29 30  1  0  0  0  0
 29 71  1  0  0  0  0
 30 31  2  0  0  0  0
 30 36  1  0  0  0  0
 31 32  1  0  0  0  0
 31 72  1  0  0  0  0
 32 33  2  0  0  0  0
 32 73  1  0  0  0  0
 33 35  1  0  0  0  0
 33 74  1  0  0  0  0
 34 47  1  0  0  0  0
 34 48  1  0  0  0  0
 34 75  1  1  0  0  0
 35 36  2  0  0  0  0
 35 76  1  0  0  0  0
 37 77  1  6  0  0  0
 38 78  1  0  0  0  0
 38 79  1  0  0  0  0
 38 80  1  0  0  0  0
 39 40  1  0  0  0  0
 39 48  1  0  0  0  0
 39100  1  6  0  0  0
 40 42  1  0  0  0  0
 40 49  1  0  0  0  0
 40 81  1  1  0  0  0
 41 82  1  0  0  0  0
 41 83  1  0  0  0  0
 41 84  1  0  0  0  0
 42 85  1  0  0  0  0
 42 86  1  0  0  0  0
 43 87  1  0  0  0  0
 43 88  1  0  0  0  0
 43 89  1  0  0  0  0
 44 45  1  0  0  0  0
 44 90  1  0  0  0  0
 44 91  1  0  0  0  0
 45 46  1  0  0  0  0
 45 92  1  0  0  0  0
 45 93  1  0  0  0  0
 46 47  1  0  0  0  0
 46 94  1  0  0  0  0
 46 95  1  0  0  0  0
 47 96  1  0  0  0  0
 47 97  1  0  0  0  0
 48 98  1  0  0  0  0
 48 99  1  0  0  0  0
M  CHG  1  39   1
M  END
>  <charge>
1

>  <KI_NM>
0.04

>  <number_of_rotatable_bonds>
16

>  <lm5_entropy_jk>
41.473308753000644

>  <ligand_crystal_conformation>
A

$$$$
