model25
 OpenBabel11252210453D

 83 85  0  0  1  0  0  0  0  0999 V2000
    5.9990   18.5430   11.9480 C   0  0  0  0  0  0  0  0  0  0  0  0
   11.2380   17.8780    7.5490 C   0  0  1  0  0  0  0  0  0  0  0  0
    4.5780   17.0240   13.1980 N   0  0  0  0  0  0  0  0  0  0  0  0
    8.4130   18.3480    8.9330 N   0  0  0  0  0  0  0  0  0  0  0  0
   12.1150   18.6860    6.7700 O   0  0  0  0  0  0  0  0  0  0  0  0
    5.0860   19.5890   12.1560 C   0  0  0  0  0  0  0  0  0  0  0  0
    9.8340   18.1510    6.9810 C   0  0  0  0  0  0  0  0  0  0  0  0
    4.8300   17.4630    9.2980 N   0  0  0  0  0  0  0  0  0  0  0  0
    5.8290   19.1410    8.1090 O   0  0  0  0  0  0  0  0  0  0  0  0
    3.9170   19.3260   12.8920 C   0  0  0  0  0  0  0  0  0  0  0  0
    8.7510   17.5980    7.8360 C   0  0  0  0  0  0  0  0  0  0  0  0
   11.8720   15.9270    6.0850 N   0  0  0  0  0  0  0  0  0  0  0  0
    8.2170   16.5410    7.5880 O   0  0  0  0  0  0  0  0  0  0  0  0
    3.7000   18.0300   13.3920 C   0  0  0  0  0  0  0  0  0  0  0  0
    7.2130   18.0040    9.7470 C   0  0  1  0  0  0  0  0  0  0  0  0
   10.2940   14.2800    5.9790 O   0  0  0  0  0  0  0  0  0  0  0  0
    7.2580   18.7550   11.1100 C   0  0  0  0  0  0  0  0  0  0  0  0
    5.7010   17.2820   12.4920 C   0  0  0  0  0  0  0  0  0  0  0  0
    5.9060   18.2640    8.9520 C   0  0  0  0  0  0  0  0  0  0  0  0
    3.5330   17.4490    8.5940 C   0  0  0  0  0  0  0  0  0  0  0  0
    3.4510   16.2420    7.6250 C   0  0  0  0  0  0  0  0  0  0  0  0
    4.4420   16.3650    6.4370 C   0  0  0  0  0  0  0  0  0  0  0  0
    3.9580   17.3760    5.3640 C   0  0  0  0  0  0  0  0  0  0  0  0
    5.1310   17.9900    4.5610 C   0  0  0  0  0  0  0  0  0  0  0  0
    6.1100   16.9230    4.0270 C   0  0  0  0  0  0  0  0  0  0  0  0
    7.0820   17.5220    2.9940 C   0  0  0  0  0  0  0  0  0  0  0  0
    8.0700   16.4530    2.4900 C   0  0  0  0  0  0  0  0  0  0  0  0
    9.2570   16.2680    3.4460 C   0  0  0  0  0  0  0  0  0  0  0  0
   10.0870   15.0230    3.0690 C   0  0  0  0  0  0  0  0  0  0  0  0
   11.3760   14.9550    3.9390 C   0  0  0  0  0  0  0  0  0  0  0  0
   11.6680   16.3600    7.4700 C   0  0  1  0  0  0  0  0  0  0  0  0
   11.1230   14.9860    5.4320 C   0  0  0  0  0  0  0  0  0  0  0  0
   12.9760   16.0940    8.2650 C   0  0  0  0  0  0  0  0  0  0  0  0
   13.5160   14.6740    8.1480 C   0  0  0  0  0  0  0  0  0  0  0  0
   12.7950   13.5930    8.6750 C   0  0  0  0  0  0  0  0  0  0  0  0
   13.2950   12.2820    8.5860 C   0  0  0  0  0  0  0  0  0  0  0  0
   14.5310   12.0490    7.9630 C   0  0  0  0  0  0  0  0  0  0  0  0
   15.2670   13.1260    7.4400 C   0  0  0  0  0  0  0  0  0  0  0  0
   14.7590   14.4340    7.5390 C   0  0  0  0  0  0  0  0  0  0  0  0
   15.3280   15.2650    7.1330 H   0  0  0  0  0  0  0  0  0  0  0  0
    8.8130   19.2830    8.9770 H   0  0  0  0  0  0  0  0  0  0  0  0
   11.2740   18.1920    8.6060 H   0  0  0  0  0  0  0  0  0  0  0  0
   12.8330   19.0100    7.3770 H   0  0  0  0  0  0  0  0  0  0  0  0
    9.7250   17.6840    6.0000 H   0  0  0  0  0  0  0  0  0  0  0  0
    5.0110   16.7370    9.9850 H   0  0  0  0  0  0  0  0  0  0  0  0
   12.5490   16.4340    5.5320 H   0  0  0  0  0  0  0  0  0  0  0  0
    7.1950   16.9190    9.9200 H   0  0  0  0  0  0  0  0  0  0  0  0
    7.3990   19.8270   10.9160 H   0  0  0  0  0  0  0  0  0  0  0  0
    8.1350   18.4230   11.6780 H   0  0  0  0  0  0  0  0  0  0  0  0
    5.2650   20.5780   11.7390 H   0  0  0  0  0  0  0  0  0  0  0  0
    3.1830   20.1120   13.0680 H   0  0  0  0  0  0  0  0  0  0  0  0
    2.7970   17.7940   13.9650 H   0  0  0  0  0  0  0  0  0  0  0  0
    6.3770   16.4440   12.3250 H   0  0  0  0  0  0  0  0  0  0  0  0
    3.3970   18.3940    8.0460 H   0  0  0  0  0  0  0  0  0  0  0  0
    2.4240   16.1350    7.2450 H   0  0  0  0  0  0  0  0  0  0  0  0
    4.5880   15.3850    5.9650 H   0  0  0  0  0  0  0  0  0  0  0  0
    3.3980   18.1980    5.8300 H   0  0  0  0  0  0  0  0  0  0  0  0
    5.6810   18.6910    5.2060 H   0  0  0  0  0  0  0  0  0  0  0  0
    5.5500   16.0970    3.5680 H   0  0  0  0  0  0  0  0  0  0  0  0
    7.6210   18.3840    3.4120 H   0  0  0  0  0  0  0  0  0  0  0  0
    8.4380   16.7270    1.4920 H   0  0  0  0  0  0  0  0  0  0  0  0
    8.8870   16.1600    4.4750 H   0  0  0  0  0  0  0  0  0  0  0  0
   10.3460   15.0480    2.0000 H   0  0  0  0  0  0  0  0  0  0  0  0
   12.0430   15.7810    3.6890 H   0  0  0  0  0  0  0  0  0  0  0  0
   10.8570   15.7530    7.9060 H   0  0  0  0  0  0  0  0  0  0  0  0
   12.8050   16.3280    9.3210 H   0  0  0  0  0  0  0  0  0  0  0  0
   11.8430   13.7760    9.1550 H   0  0  0  0  0  0  0  0  0  0  0  0
   12.7230   11.4520    9.0000 H   0  0  0  0  0  0  0  0  0  0  0  0
   14.9170   11.0330    7.8870 H   0  0  0  0  0  0  0  0  0  0  0  0
   16.2280   12.9480    6.9560 H   0  0  0  0  0  0  0  0  0  0  0  0
   13.7350   16.8080    7.9320 H   0  0  0  0  0  0  0  0  0  0  0  0
    9.6460   19.2170    6.8640 H   0  0  0  0  0  0  0  0  0  0  0  0
    2.7200   17.3910    9.3350 H   0  0  0  0  0  0  0  0  0  0  0  0
    3.6600   15.3180    8.1840 H   0  0  0  0  0  0  0  0  0  0  0  0
    5.4400   16.6540    6.8020 H   0  0  0  0  0  0  0  0  0  0  0  0
    3.2530   16.8830    4.6800 H   0  0  0  0  0  0  0  0  0  0  0  0
    4.7310   18.5870    3.7300 H   0  0  0  0  0  0  0  0  0  0  0  0
    6.6780   16.4910    4.8630 H   0  0  0  0  0  0  0  0  0  0  0  0
    6.5010   17.8980    2.1420 H   0  0  0  0  0  0  0  0  0  0  0  0
    7.5410   15.4990    2.3800 H   0  0  0  0  0  0  0  0  0  0  0  0
    9.8870   17.1670    3.4320 H   0  0  0  0  0  0  0  0  0  0  0  0
    9.4850   14.1160    3.2250 H   0  0  0  0  0  0  0  0  0  0  0  0
   11.9340   14.0350    3.7480 H   0  0  0  0  0  0  0  0  0  0  0  0
  1  6  2  0  0  0  0
  1 18  1  0  0  0  0
  2 42  1  1  0  0  0
  2 31  1  0  0  0  0
  3 14  1  0  0  0  0
  4 41  1  0  0  0  0
  4 15  1  0  0  0  0
  5 43  1  0  0  0  0
  5  2  1  0  0  0  0
  6 10  1  0  0  0  0
  7  2  1  0  0  0  0
  7 11  1  0  0  0  0
  8 45  1  0  0  0  0
  9 19  2  0  0  0  0
 10 51  1  0  0  0  0
 10 14  2  0  0  0  0
 11  4  1  0  0  0  0
 12 31  1  0  0  0  0
 13 11  2  0  0  0  0
 14 52  1  0  0  0  0
 15 47  1  1  0  0  0
 15 17  1  0  0  0  0
 17 49  1  0  0  0  0
 17  1  1  0  0  0  0
 18  3  2  0  0  0  0
 19  8  1  0  0  0  0
 19 15  1  0  0  0  0
 20  8  1  0  0  0  0
 20 73  1  0  0  0  0
 21 74  1  0  0  0  0
 21 20  1  0  0  0  0
 22 75  1  0  0  0  0
 22 21  1  0  0  0  0
 23 57  1  0  0  0  0
 23 22  1  0  0  0  0
 24 58  1  0  0  0  0
 24 23  1  0  0  0  0
 25 24  1  0  0  0  0
 25 78  1  0  0  0  0
 26 60  1  0  0  0  0
 26 25  1  0  0  0  0
 27 26  1  0  0  0  0
 27 28  1  0  0  0  0
 28 62  1  0  0  0  0
 29 28  1  0  0  0  0
 29 82  1  0  0  0  0
 29 30  1  0  0  0  0
 30 32  1  0  0  0  0
 31 65  1  1  0  0  0
 31 33  1  0  0  0  0
 32 12  1  0  0  0  0
 32 16  2  0  0  0  0
 33 66  1  0  0  0  0
 34 33  1  0  0  0  0
 34 35  2  0  0  0  0
 35 67  1  0  0  0  0
 36 35  1  0  0  0  0
 36 68  1  0  0  0  0
 37 36  2  0  0  0  0
 38 39  2  0  0  0  0
 38 37  1  0  0  0  0
 39 34  1  0  0  0  0
 40 39  1  0  0  0  0
 44  7  1  0  0  0  0
 46 12  1  0  0  0  0
 48 17  1  0  0  0  0
 50  6  1  0  0  0  0
 53 18  1  0  0  0  0
 54 20  1  0  0  0  0
 55 21  1  0  0  0  0
 56 22  1  0  0  0  0
 59 25  1  0  0  0  0
 61 27  1  0  0  0  0
 63 29  1  0  0  0  0
 64 30  1  0  0  0  0
 69 37  1  0  0  0  0
 70 38  1  0  0  0  0
 71 33  1  0  0  0  0
 72  7  1  0  0  0  0
 76 23  1  0  0  0  0
 77 24  1  0  0  0  0
 79 26  1  0  0  0  0
 80 27  1  0  0  0  0
 81 28  1  0  0  0  0
 83 30  1  0  0  0  0
M  END
>  <IC50_NM>
1.1

>  <number_of_rotatable_bonds>
4

>  <charge>
0

>  <lm5_entropy_jk>
18.43900937288166

$$$$
