2IKG
 OpenBabel11252210453D

 30 31  0  0  0  0  0  0  0  0999 V2000
   17.2810   -2.7020    9.9500 N   0  3  0  0  0  0  0  0  0  0  0  0
   18.4390   -2.3420   10.1360 O   0  5  0  0  0  0  0  0  0  0  0  0
   14.9750   -5.3550   11.3760 C   0  0  0  0  0  0  0  0  0  0  0  0
   17.4020   -6.9240   14.5410 N   0  0  0  0  0  0  0  0  0  0  0  0
   16.5410   -2.2190    9.0960 O   0  0  0  0  0  0  0  0  0  0  0  0
   15.4670   -4.3300   10.5530 C   0  0  0  0  0  0  0  0  0  0  0  0
   19.0460   -5.4120   14.1320 N   0  0  0  0  0  0  0  0  0  0  0  0
   16.7780   -3.8490   10.7500 C   0  0  0  0  0  0  0  0  0  0  0  0
   17.5830   -4.3990   11.7740 C   0  0  0  0  0  0  0  0  0  0  0  0
   17.0900   -5.4240   12.6030 C   0  0  0  0  0  0  0  0  0  0  0  0
   15.7800   -5.8980   12.3900 C   0  0  0  0  0  0  0  0  0  0  0  0
   17.8830   -5.9210   13.7410 C   0  0  0  0  0  0  0  0  0  0  0  0
   18.3100   -6.9760   15.4770 C   0  0  0  0  0  0  0  0  0  0  0  0
   18.2300   -7.8620   16.6830 C   0  0  0  0  0  0  0  0  0  0  0  0
   16.8610   -7.8260   17.4040 C   0  0  0  0  0  0  0  0  0  0  0  0
   16.6640   -6.4640   18.1550 C   0  0  0  0  0  0  0  0  0  0  0  0
   15.2430   -6.1740   18.5520 C   0  0  0  0  0  0  0  0  0  0  0  0
   15.0450   -5.4570   19.5200 O   0  0  0  0  0  0  0  0  0  0  0  0
   14.3680   -6.7360   17.9340 O   0  5  0  0  0  0  0  0  0  0  0  0
   19.3500   -6.1220   15.3120 O   0  0  0  0  0  0  0  0  0  0  0  0
   16.9610   -5.6200   17.5300 H   0  0  0  0  0  0  0  0  0  0  0  0
   13.9470   -5.6980   11.2630 H   0  0  0  0  0  0  0  0  0  0  0  0
   14.8200   -3.8880    9.7930 H   0  0  0  0  0  0  0  0  0  0  0  0
   18.5700   -3.9870   11.9710 H   0  0  0  0  0  0  0  0  0  0  0  0
   15.3690   -6.6570   13.0510 H   0  0  0  0  0  0  0  0  0  0  0  0
   19.0010   -7.5760   17.3980 H   0  0  0  0  0  0  0  0  0  0  0  0
   16.7740   -8.6570   18.1210 H   0  0  0  0  0  0  0  0  0  0  0  0
   17.2630   -6.4280   19.0680 H   0  0  0  0  0  0  0  0  0  0  0  0
   18.4600   -8.8830   16.3610 H   0  0  0  0  0  0  0  0  0  0  0  0
   16.0570   -7.9940   16.6690 H   0  0  0  0  0  0  0  0  0  0  0  0
  1  2  1  0  0  0  0
  1  5  2  0  0  0  0
  1  8  1  0  0  0  0
  3  6  2  0  0  0  0
  3 11  1  0  0  0  0
  3 22  1  0  0  0  0
  4 12  1  0  0  0  0
  4 13  2  0  0  0  0
  6  8  1  0  0  0  0
  6 23  1  0  0  0  0
  7 12  2  0  0  0  0
  7 20  1  0  0  0  0
  8  9  2  0  0  0  0
  9 10  1  0  0  0  0
  9 24  1  0  0  0  0
 10 11  2  0  0  0  0
 10 12  1  0  0  0  0
 11 25  1  0  0  0  0
 13 14  1  0  0  0  0
 13 20  1  0  0  0  0
 14 15  1  0  0  0  0
 14 26  1  0  0  0  0
 14 29  1  0  0  0  0
 15 16  1  0  0  0  0
 15 27  1  0  0  0  0
 15 30  1  0  0  0  0
 16 17  1  0  0  0  0
 16 21  1  0  0  0  0
 16 28  1  0  0  0  0
 17 18  2  0  0  0  0
 17 19  1  0  0  0  0
M  CHG  3   1   1   2  -1  19  -1
M  END
>  <lm5_entropy_jk>
21.679325925993282

>  <number_of_rotatable_bonds>
6

>  <deltaG_kcalmol>
-8.46

>  <charge>
-1

$$$$
