1M2P
 OpenBabel11252210453D

 28 30  0  0  1  0  0  0  0  0999 V2000
   23.4140    4.6230   21.3710 N   0  3  0  0  0  0  0  0  0  0  0  0
   25.5080    3.8040   17.7490 C   0  0  0  0  0  0  0  0  0  0  0  0
   24.7470    4.9870   17.8080 C   0  0  0  0  0  0  0  0  0  0  0  0
   24.0140    5.2800   18.9960 C   0  0  0  0  0  0  0  0  0  0  0  0
   24.0910    4.3610   20.0820 C   0  0  0  0  0  0  0  0  0  0  0  0
   24.8340    3.1770   19.9830 C   0  0  0  0  0  0  0  0  0  0  0  0
   25.5420    2.9160   18.8120 C   0  0  0  0  0  0  0  0  0  0  0  0
   23.1560    6.5380   19.0790 C   0  0  0  0  0  0  0  0  0  0  0  0
   23.1450    7.4590   17.8830 C   0  0  0  0  0  0  0  0  0  0  0  0
   23.8840    7.1750   16.7050 C   0  0  0  0  0  0  0  0  0  0  0  0
   24.7040    5.9180   16.6280 C   0  0  0  0  0  0  0  0  0  0  0  0
   23.8230    8.0930   15.6310 C   0  0  0  0  0  0  0  0  0  0  0  0
   23.0390    9.2430   15.7230 C   0  0  0  0  0  0  0  0  0  0  0  0
   22.3170    9.5310   16.8860 C   0  0  0  0  0  0  0  0  0  0  0  0
   22.3650    8.6330   17.9500 C   0  0  0  0  0  0  0  0  0  0  0  0
   26.2400    3.4830   16.6640 O   0  0  0  0  0  0  0  0  0  0  0  0
   24.0280    5.3430   22.1530 O   0  5  0  0  0  0  0  0  0  0  0  0
   22.5910    3.7840   21.7340 O   0  0  0  0  0  0  0  0  0  0  0  0
   22.4730    6.8070   20.0570 O   0  0  0  0  0  0  0  0  0  0  0  0
   25.3250    5.6240   15.6190 O   0  0  0  0  0  0  0  0  0  0  0  0
   24.4970    7.9050   14.4660 O   0  0  0  0  0  0  0  0  0  0  0  0
   24.8660    2.4700   20.8160 H   0  0  0  0  0  0  0  0  0  0  0  0
   26.1270    2.0040   18.7170 H   0  0  0  0  0  0  0  0  0  0  0  0
   21.7180   10.4410   16.9700 H   0  0  0  0  0  0  0  0  0  0  0  0
   22.9910    9.9350   14.8890 H   0  0  0  0  0  0  0  0  0  0  0  0
   21.7910    8.8580   18.8490 H   0  0  0  0  0  0  0  0  0  0  0  0
   24.5490    8.7820   14.0350 H   0  0  0  0  0  0  0  0  0  0  0  0
   25.9910    4.1650   16.0000 H   0  0  0  0  0  0  0  0  0  0  0  0
  1 17  1  0  0  0  0
  1 18  2  0  0  0  0
  2  3  2  0  0  0  0
  2  7  1  0  0  0  0
  2 16  1  0  0  0  0
  3  4  1  0  0  0  0
  3 11  1  0  0  0  0
  4  5  2  0  0  0  0
  4  8  1  0  0  0  0
  5  1  1  0  0  0  0
  5  6  1  0  0  0  0
  6  7  2  0  0  0  0
  6 22  1  0  0  0  0
  7 23  1  0  0  0  0
  8  9  1  0  0  0  0
  8 19  2  0  0  0  0
  9 10  2  0  0  0  0
  9 15  1  0  0  0  0
 10 11  1  0  0  0  0
 10 12  1  0  0  0  0
 11 20  2  0  0  0  0
 12 13  2  0  0  0  0
 12 21  1  0  0  0  0
 13 14  1  0  0  0  0
 13 25  1  0  0  0  0
 14 15  2  0  0  0  0
 14 24  1  0  0  0  0
 15 26  1  0  0  0  0
 16 28  1  0  0  0  0
 21 27  1  0  0  0  0
M  CHG  2   1   1  17  -1
M  END
>  <Ki_NM>
780

>  <charge>
0

>  <number_of_rotatable_bonds>
1

>  <lm5_entropy_jk>
14.010740156892343

$$$$
