model13d
 OpenBabel11252210453D

 90 93  0  0  1  0  0  0  0  0999 V2000
    5.9250    4.3310    7.2200 C   0  0  0  0  0  0  0  0  0  0  0  0
    7.2760   -5.8790   16.9210 N   0  0  0  0  0  0  0  0  0  0  0  0
    8.0930   -5.7900   19.0380 O   0  0  0  0  0  0  0  0  0  0  0  0
    7.2290   -7.8280   18.2610 C   0  0  0  0  0  0  0  0  0  0  0  0
    6.6330   -3.4530   14.5760 O   0  0  0  0  0  0  0  0  0  0  0  0
    7.5700   -6.4070   18.1360 C   0  0  0  0  0  0  0  0  0  0  0  0
    5.6190   -3.4230   16.5950 N   0  0  0  0  0  0  0  0  0  0  0  0
    7.1970    0.8500   12.7610 C   0  0  0  0  0  0  0  0  0  0  0  0
    4.5380    0.3330   13.6360 N   0  0  0  0  0  0  0  0  0  0  0  0
    4.8000    0.7900   16.3260 O   0  0  0  0  0  0  0  0  0  0  0  0
    7.1670    2.1970   12.3690 C   0  0  0  0  0  0  0  0  0  0  0  0
    3.4190   -1.5390   13.0180 O   0  0  0  0  0  0  0  0  0  0  0  0
    7.4140    2.5550   11.0340 C   0  0  0  0  0  0  0  0  0  0  0  0
    7.6860    1.5570   10.0860 C   0  0  0  0  0  0  0  0  0  0  0  0
    7.7260    0.2080   10.4750 C   0  0  0  0  0  0  0  0  0  0  0  0
    7.4770   -0.1430   11.8130 C   0  0  0  0  0  0  0  0  0  0  0  0
    7.7970   -4.5680   16.4170 C   0  0  2  0  0  0  0  0  0  0  0  0
    6.6610   -3.7420   15.7630 C   0  0  0  0  0  0  0  0  0  0  0  0
    4.3270   -2.9670   16.1180 C   0  0  1  0  0  0  0  0  0  0  0  0
    9.0190   -4.7500   15.4670 C   0  0  0  0  0  0  0  0  0  0  0  0
    9.8530   -3.4670   15.4080 C   0  0  0  0  0  0  0  0  0  0  0  0
    9.9750   -5.8680   15.8960 C   0  0  0  0  0  0  0  0  0  0  0  0
    2.3310   -7.0930   15.6640 C   0  0  0  0  0  0  0  0  0  0  0  0
    2.8290   -7.9200   16.6830 C   0  0  0  0  0  0  0  0  0  0  0  0
    3.4870   -7.3540   17.7870 C   0  0  0  0  0  0  0  0  0  0  0  0
    3.6500   -5.9610   17.8610 C   0  0  0  0  0  0  0  0  0  0  0  0
    3.1540   -5.1350   16.8420 C   0  0  0  0  0  0  0  0  0  0  0  0
    2.4970   -5.7010   15.7440 C   0  0  0  0  0  0  0  0  0  0  0  0
    3.2410   -3.6330   16.9760 C   0  0  0  0  0  0  0  0  0  0  0  0
    4.1490   -1.4520   16.2960 C   0  0  0  0  0  0  0  0  0  0  0  0
    5.2760   -0.4780   15.9130 C   0  0  1  0  0  0  0  0  0  0  0  0
    5.6130   -0.3430   14.3960 C   0  0  2  0  0  0  0  0  0  0  0  0
    3.5590   -0.3310   12.9440 C   0  0  0  0  0  0  0  0  0  0  0  0
    2.7130    0.5270   11.9870 C   0  0  1  0  0  0  0  0  0  0  0  0
    2.0730    1.6740   12.6170 O   0  0  0  0  0  0  0  0  0  0  0  0
    6.9190    0.4740   14.2020 C   0  0  0  0  0  0  0  0  0  0  0  0
    2.0180    2.7550   11.7830 C   0  0  0  0  0  0  0  0  0  0  0  0
    1.4220    3.7930   12.0030 O   0  0  0  0  0  0  0  0  0  0  0  0
    2.8610    2.5090   10.7240 N   0  0  0  0  0  0  0  0  0  0  0  0
    3.5000    1.1930   10.8390 C   0  0  0  0  0  0  0  0  0  0  0  0
    3.0430    3.3410    9.5900 C   0  0  0  0  0  0  0  0  0  0  0  0
    4.3090    3.4520    8.9980 C   0  0  0  0  0  0  0  0  0  0  0  0
    4.5170    4.2400    7.8460 C   0  0  0  0  0  0  0  0  0  0  0  0
    3.4150    4.9310    7.2960 C   0  0  0  0  0  0  0  0  0  0  0  0
    2.1410    4.8210    7.8770 C   0  0  0  0  0  0  0  0  0  0  0  0
    1.9590    4.0210    9.0180 C   0  0  0  0  0  0  0  0  0  0  0  0
    6.7950    4.9420    8.0560 F   0  0  0  0  0  0  0  0  0  0  0  0
    6.4350    3.1100    6.9470 F   0  0  0  0  0  0  0  0  0  0  0  0
    5.9440    5.0280    6.0610 F   0  0  0  0  0  0  0  0  0  0  0  0
    6.9170   -6.5520   16.2500 H   0  0  0  0  0  0  0  0  0  0  0  0
    6.2490   -8.0070   17.8160 H   0  0  0  0  0  0  0  0  0  0  0  0
    7.9800   -8.4160   17.7310 H   0  0  0  0  0  0  0  0  0  0  0  0
    7.2170   -8.0980   19.3190 H   0  0  0  0  0  0  0  0  0  0  0  0
    5.6840   -3.7620   17.5470 H   0  0  0  0  0  0  0  0  0  0  0  0
    4.5830    1.3360   13.5080 H   0  0  0  0  0  0  0  0  0  0  0  0
    4.8920    1.3190   15.5100 H   0  0  0  0  0  0  0  0  0  0  0  0
    6.9630    2.9720   13.1050 H   0  0  0  0  0  0  0  0  0  0  0  0
    7.4020    3.6040   10.7380 H   0  0  0  0  0  0  0  0  0  0  0  0
    7.8740    1.8310    9.0480 H   0  0  0  0  0  0  0  0  0  0  0  0
    7.9580   -0.5600    9.7410 H   0  0  0  0  0  0  0  0  0  0  0  0
    7.5130   -1.1850   12.1210 H   0  0  0  0  0  0  0  0  0  0  0  0
    8.1270   -3.9710   17.2750 H   0  0  0  0  0  0  0  0  0  0  0  0
    4.1980   -3.2440   15.0550 H   0  0  0  0  0  0  0  0  0  0  0  0
    8.6320   -4.9870   14.4650 H   0  0  0  0  0  0  0  0  0  0  0  0
   10.6650   -3.5510   14.6760 H   0  0  0  0  0  0  0  0  0  0  0  0
    9.2270   -2.6180   15.1060 H   0  0  0  0  0  0  0  0  0  0  0  0
   10.3010   -3.2340   16.3820 H   0  0  0  0  0  0  0  0  0  0  0  0
   10.8250   -5.9300   15.2110 H   0  0  0  0  0  0  0  0  0  0  0  0
   10.3520   -5.7020   16.9130 H   0  0  0  0  0  0  0  0  0  0  0  0
    9.4730   -6.8430   15.8760 H   0  0  0  0  0  0  0  0  0  0  0  0
    1.8210   -7.5270   14.8110 H   0  0  0  0  0  0  0  0  0  0  0  0
    2.7000   -9.0010   16.6240 H   0  0  0  0  0  0  0  0  0  0  0  0
    3.8610   -7.9900   18.5880 H   0  0  0  0  0  0  0  0  0  0  0  0
    4.1510   -5.5190   18.7190 H   0  0  0  0  0  0  0  0  0  0  0  0
    2.0930   -5.0570   14.9680 H   0  0  0  0  0  0  0  0  0  0  0  0
    2.2660   -3.2020   16.7290 H   0  0  0  0  0  0  0  0  0  0  0  0
    3.4030   -3.3800   18.0300 H   0  0  0  0  0  0  0  0  0  0  0  0
    3.9800   -1.2780   17.3610 H   0  0  0  0  0  0  0  0  0  0  0  0
    3.2310   -1.1440   15.7840 H   0  0  0  0  0  0  0  0  0  0  0  0
    6.1940   -0.7500   16.4640 H   0  0  0  0  0  0  0  0  0  0  0  0
    5.7610   -1.3570   13.9970 H   0  0  0  0  0  0  0  0  0  0  0  0
    1.9480   -0.1540   11.5850 H   0  0  0  0  0  0  0  0  0  0  0  0
    6.8980    1.3750   14.8270 H   0  0  0  0  0  0  0  0  0  0  0  0
    7.7650   -0.0980   14.6030 H   0  0  0  0  0  0  0  0  0  0  0  0
    3.4020    0.6300    9.8990 H   0  0  0  0  0  0  0  0  0  0  0  0
    4.5730    1.2940   11.0810 H   0  0  0  0  0  0  0  0  0  0  0  0
    5.1450    2.9080    9.4280 H   0  0  0  0  0  0  0  0  0  0  0  0
    3.5420    5.5560    6.4100 H   0  0  0  0  0  0  0  0  0  0  0  0
    0.9680    3.9230    9.4540 H   0  0  0  0  0  0  0  0  0  0  0  0
    1.2950    5.3560    7.4390 H   0  0  0  0  0  0  0  0  0  0  0  0
  1 43  1  0  0  0  0
  1 47  1  0  0  0  0
  1 48  1  0  0  0  0
  1 49  1  0  0  0  0
  2  6  1  0  0  0  0
  2 17  1  0  0  0  0
  2 50  1  0  0  0  0
  3  6  2  0  0  0  0
  4  6  1  0  0  0  0
  4 51  1  0  0  0  0
  4 52  1  0  0  0  0
  4 53  1  0  0  0  0
  5 18  2  0  0  0  0
  7 18  1  0  0  0  0
  7 19  1  0  0  0  0
  7 54  1  0  0  0  0
  8 11  2  0  0  0  0
  8 16  1  0  0  0  0
  8 36  1  0  0  0  0
  9 32  1  0  0  0  0
  9 33  1  0  0  0  0
  9 55  1  0  0  0  0
 10 31  1  0  0  0  0
 10 56  1  0  0  0  0
 11 13  1  0  0  0  0
 11 57  1  0  0  0  0
 12 33  2  0  0  0  0
 13 14  2  0  0  0  0
 13 58  1  0  0  0  0
 14 15  1  0  0  0  0
 14 59  1  0  0  0  0
 15 16  2  0  0  0  0
 15 60  1  0  0  0  0
 16 61  1  0  0  0  0
 17 18  1  0  0  0  0
 17 20  1  0  0  0  0
 17 62  1  1  0  0  0
 19 29  1  0  0  0  0
 19 30  1  0  0  0  0
 19 63  1  6  0  0  0
 20 21  1  0  0  0  0
 20 22  1  0  0  0  0
 20 64  1  0  0  0  0
 21 65  1  0  0  0  0
 21 66  1  0  0  0  0
 21 67  1  0  0  0  0
 22 68  1  0  0  0  0
 22 69  1  0  0  0  0
 22 70  1  0  0  0  0
 23 24  2  0  0  0  0
 23 28  1  0  0  0  0
 23 71  1  0  0  0  0
 24 25  1  0  0  0  0
 24 72  1  0  0  0  0
 25 26  2  0  0  0  0
 25 73  1  0  0  0  0
 26 27  1  0  0  0  0
 26 74  1  0  0  0  0
 27 28  2  0  0  0  0
 27 29  1  0  0  0  0
 28 75  1  0  0  0  0
 29 76  1  0  0  0  0
 29 77  1  0  0  0  0
 30 31  1  0  0  0  0
 30 78  1  0  0  0  0
 30 79  1  0  0  0  0
 31 32  1  0  0  0  0
 31 80  1  1  0  0  0
 32 36  1  0  0  0  0
 32 81  1  6  0  0  0
 33 34  1  0  0  0  0
 34 35  1  0  0  0  0
 34 40  1  0  0  0  0
 34 82  1  6  0  0  0
 35 37  1  0  0  0  0
 36 83  1  0  0  0  0
 36 84  1  0  0  0  0
 37 38  2  0  0  0  0
 37 39  1  0  0  0  0
 39 40  1  0  0  0  0
 39 41  1  0  0  0  0
 40 85  1  0  0  0  0
 40 86  1  0  0  0  0
 41 42  2  0  0  0  0
 41 46  1  0  0  0  0
 42 43  1  0  0  0  0
 42 87  1  0  0  0  0
 43 44  2  0  0  0  0
 44 45  1  0  0  0  0
 44 88  1  0  0  0  0
 45 46  2  0  0  0  0
 45 90  1  0  0  0  0
 46 89  1  0  0  0  0
M  END
>  <charge>
0

>  <KI_NM>
2.62

>  <number_of_rotatable_bonds>
18

>  <lm5_entropy_jk>
42.88787327729588

>  <ligand_crystal_conformation>
A

$$$$
