model13d
 OpenBabel11252210453D

 90 93  0  0  1  0  0  0  0  0999 V2000
    4.7760    4.4670    6.9310 C   0  0  0  0  0  0  0  0  0  0  0  0
    7.1840   -5.8360   16.8260 N   0  0  0  0  0  0  0  0  0  0  0  0
    7.8030   -5.8420   19.0110 O   0  0  0  0  0  0  0  0  0  0  0  0
    6.9610   -7.8280   18.0880 C   0  0  0  0  0  0  0  0  0  0  0  0
    6.8230   -3.3410   14.4730 O   0  0  0  0  0  0  0  0  0  0  0  0
    7.3450   -6.4110   18.0450 C   0  0  0  0  0  0  0  0  0  0  0  0
    5.5760   -3.4070   16.3530 N   0  0  0  0  0  0  0  0  0  0  0  0
    7.1300    0.9710   12.4970 C   0  0  0  0  0  0  0  0  0  0  0  0
    4.4210    0.4880   13.5660 N   0  0  0  0  0  0  0  0  0  0  0  0
    4.9980    0.8170   16.2960 O   0  0  0  0  0  0  0  0  0  0  0  0
    6.8490    2.2390   11.9640 C   0  0  0  0  0  0  0  0  0  0  0  0
    3.5390   -1.2740   12.4390 O   0  0  0  0  0  0  0  0  0  0  0  0
    7.1440    2.5250   10.6200 C   0  0  0  0  0  0  0  0  0  0  0  0
    7.7250    1.5370    9.8080 C   0  0  0  0  0  0  0  0  0  0  0  0
    8.0140    0.2700   10.3420 C   0  0  0  0  0  0  0  0  0  0  0  0
    7.7090   -0.0110   11.6840 C   0  0  0  0  0  0  0  0  0  0  0  0
    7.7600   -4.5110   16.4270 C   0  0  2  0  0  0  0  0  0  0  0  0
    6.7130   -3.6800   15.6430 C   0  0  0  0  0  0  0  0  0  0  0  0
    4.3620   -2.8970   15.7620 C   0  0  1  0  0  0  0  0  0  0  0  0
    9.1260   -4.6910   15.7020 C   0  0  0  0  0  0  0  0  0  0  0  0
    9.8360   -3.3520   15.4790 C   0  0  0  0  0  0  0  0  0  0  0  0
   10.0890   -5.5290   16.5570 C   0  0  0  0  0  0  0  0  0  0  0  0
    3.2400   -7.2820   15.2400 C   0  0  0  0  0  0  0  0  0  0  0  0
    3.3480   -7.9560   16.4670 C   0  0  0  0  0  0  0  0  0  0  0  0
    3.4140   -7.2280   17.6650 C   0  0  0  0  0  0  0  0  0  0  0  0
    3.3850   -5.8240   17.6280 C   0  0  0  0  0  0  0  0  0  0  0  0
    3.2660   -5.1460   16.4050 C   0  0  0  0  0  0  0  0  0  0  0  0
    3.1780   -5.8770   15.2140 C   0  0  0  0  0  0  0  0  0  0  0  0
    3.1680   -3.6340   16.3870 C   0  0  0  0  0  0  0  0  0  0  0  0
    4.2010   -1.4010   16.0740 C   0  0  0  0  0  0  0  0  0  0  0  0
    5.3530   -0.4320   15.7180 C   0  0  1  0  0  0  0  0  0  0  0  0
    5.5790   -0.1870   14.1910 C   0  0  2  0  0  0  0  0  0  0  0  0
    3.4550   -0.1130   12.7940 C   0  0  0  0  0  0  0  0  0  0  0  0
    2.2290    0.7840   12.4810 C   0  0  1  0  0  0  0  0  0  0  0  0
    2.5010    2.1490   12.8870 O   0  0  0  0  0  0  0  0  0  0  0  0
    6.8470    0.6780   13.9560 C   0  0  0  0  0  0  0  0  0  0  0  0
    2.7780    2.9780   11.8440 C   0  0  0  0  0  0  0  0  0  0  0  0
    3.1010    4.1460   11.9330 O   0  0  0  0  0  0  0  0  0  0  0  0
    2.3090    2.3680   10.7210 N   0  0  0  0  0  0  0  0  0  0  0  0
    1.9030    0.9690   10.9760 C   0  0  0  0  0  0  0  0  0  0  0  0
    2.2680    3.0150    9.4700 C   0  0  0  0  0  0  0  0  0  0  0  0
    3.4560    3.4180    8.8480 C   0  0  0  0  0  0  0  0  0  0  0  0
    3.4440    4.0890    7.6070 C   0  0  0  0  0  0  0  0  0  0  0  0
    2.1950    4.4000    7.0240 C   0  0  0  0  0  0  0  0  0  0  0  0
    0.9990    4.0510    7.6750 C   0  0  0  0  0  0  0  0  0  0  0  0
    1.0410    3.3520    8.8940 C   0  0  0  0  0  0  0  0  0  0  0  0
    5.5060    3.3690    6.6330 F   0  0  0  0  0  0  0  0  0  0  0  0
    4.6070    5.1490    5.7750 F   0  0  0  0  0  0  0  0  0  0  0  0
    5.5400    5.2420    7.7330 F   0  0  0  0  0  0  0  0  0  0  0  0
    6.8330   -6.4620   16.1060 H   0  0  0  0  0  0  0  0  0  0  0  0
    6.0370   -7.9700   17.5230 H   0  0  0  0  0  0  0  0  0  0  0  0
    7.7560   -8.4220   17.6350 H   0  0  0  0  0  0  0  0  0  0  0  0
    6.8110   -8.1270   19.1280 H   0  0  0  0  0  0  0  0  0  0  0  0
    5.5480   -3.7340   17.3100 H   0  0  0  0  0  0  0  0  0  0  0  0
    4.2410    1.4630   13.7840 H   0  0  0  0  0  0  0  0  0  0  0  0
    5.0800    1.4510   15.5580 H   0  0  0  0  0  0  0  0  0  0  0  0
    6.4050    3.0050   12.5960 H   0  0  0  0  0  0  0  0  0  0  0  0
    6.9310    3.5130   10.2100 H   0  0  0  0  0  0  0  0  0  0  0  0
    7.9520    1.7590    8.7650 H   0  0  0  0  0  0  0  0  0  0  0  0
    8.4720   -0.4920    9.7190 H   0  0  0  0  0  0  0  0  0  0  0  0
    7.9310   -0.9880   12.1030 H   0  0  0  0  0  0  0  0  0  0  0  0
    7.9420   -3.9230   17.3350 H   0  0  0  0  0  0  0  0  0  0  0  0
    4.3740   -3.0700   14.6710 H   0  0  0  0  0  0  0  0  0  0  0  0
    8.9430   -5.1890   14.7330 H   0  0  0  0  0  0  0  0  0  0  0  0
   10.7700   -3.4810   14.9220 H   0  0  0  0  0  0  0  0  0  0  0  0
    9.2090   -2.6730   14.8900 H   0  0  0  0  0  0  0  0  0  0  0  0
   10.0680   -2.8560   16.4290 H   0  0  0  0  0  0  0  0  0  0  0  0
   11.1070   -5.4940   16.1710 H   0  0  0  0  0  0  0  0  0  0  0  0
   10.1120   -5.1680   17.5920 H   0  0  0  0  0  0  0  0  0  0  0  0
    9.7800   -6.5810   16.5800 H   0  0  0  0  0  0  0  0  0  0  0  0
    3.2090   -7.8500   14.3130 H   0  0  0  0  0  0  0  0  0  0  0  0
    3.3860   -9.0460   16.4900 H   0  0  0  0  0  0  0  0  0  0  0  0
    3.4990   -7.7470   18.6200 H   0  0  0  0  0  0  0  0  0  0  0  0
    3.4470   -5.2590   18.5560 H   0  0  0  0  0  0  0  0  0  0  0  0
    3.0650   -5.3520   14.2710 H   0  0  0  0  0  0  0  0  0  0  0  0
    2.2690   -3.3560   15.8370 H   0  0  0  0  0  0  0  0  0  0  0  0
    3.0090   -3.2790   17.4120 H   0  0  0  0  0  0  0  0  0  0  0  0
    4.0810   -1.3180   17.1580 H   0  0  0  0  0  0  0  0  0  0  0  0
    3.2690   -1.0320   15.6360 H   0  0  0  0  0  0  0  0  0  0  0  0
    6.2930   -0.8040   16.1660 H   0  0  0  0  0  0  0  0  0  0  0  0
    5.7370   -1.1690   13.7230 H   0  0  0  0  0  0  0  0  0  0  0  0
    1.3870    0.3500   13.0400 H   0  0  0  0  0  0  0  0  0  0  0  0
    6.7790    1.6190   14.5110 H   0  0  0  0  0  0  0  0  0  0  0  0
    7.7140    0.1710   14.3990 H   0  0  0  0  0  0  0  0  0  0  0  0
    0.8300    0.8230   10.7700 H   0  0  0  0  0  0  0  0  0  0  0  0
    2.4830    0.2590   10.3690 H   0  0  0  0  0  0  0  0  0  0  0  0
    4.4020    3.1650    9.3210 H   0  0  0  0  0  0  0  0  0  0  0  0
    2.1480    4.9370    6.0760 H   0  0  0  0  0  0  0  0  0  0  0  0
    0.1180    3.1040    9.4110 H   0  0  0  0  0  0  0  0  0  0  0  0
    0.0390    4.3360    7.2430 H   0  0  0  0  0  0  0  0  0  0  0  0
  1 43  1  0  0  0  0
  1 47  1  0  0  0  0
  1 48  1  0  0  0  0
  1 49  1  0  0  0  0
  2  6  1  0  0  0  0
  2 17  1  0  0  0  0
  2 50  1  0  0  0  0
  3  6  2  0  0  0  0
  4  6  1  0  0  0  0
  4 51  1  0  0  0  0
  4 52  1  0  0  0  0
  4 53  1  0  0  0  0
  5 18  2  0  0  0  0
  7 18  1  0  0  0  0
  7 19  1  0  0  0  0
  7 54  1  0  0  0  0
  8 11  2  0  0  0  0
  8 16  1  0  0  0  0
  8 36  1  0  0  0  0
  9 32  1  0  0  0  0
  9 33  1  0  0  0  0
  9 55  1  0  0  0  0
 10 31  1  0  0  0  0
 10 56  1  0  0  0  0
 11 13  1  0  0  0  0
 11 57  1  0  0  0  0
 12 33  2  0  0  0  0
 13 14  2  0  0  0  0
 13 58  1  0  0  0  0
 14 15  1  0  0  0  0
 14 59  1  0  0  0  0
 15 16  2  0  0  0  0
 15 60  1  0  0  0  0
 16 61  1  0  0  0  0
 17 18  1  0  0  0  0
 17 20  1  0  0  0  0
 17 62  1  1  0  0  0
 19 29  1  0  0  0  0
 19 30  1  0  0  0  0
 19 63  1  6  0  0  0
 20 21  1  0  0  0  0
 20 22  1  0  0  0  0
 20 64  1  0  0  0  0
 21 65  1  0  0  0  0
 21 66  1  0  0  0  0
 21 67  1  0  0  0  0
 22 68  1  0  0  0  0
 22 69  1  0  0  0  0
 22 70  1  0  0  0  0
 23 24  2  0  0  0  0
 23 28  1  0  0  0  0
 23 71  1  0  0  0  0
 24 25  1  0  0  0  0
 24 72  1  0  0  0  0
 25 26  2  0  0  0  0
 25 73  1  0  0  0  0
 26 27  1  0  0  0  0
 26 74  1  0  0  0  0
 27 28  2  0  0  0  0
 27 29  1  0  0  0  0
 28 75  1  0  0  0  0
 29 76  1  0  0  0  0
 29 77  1  0  0  0  0
 30 31  1  0  0  0  0
 30 78  1  0  0  0  0
 30 79  1  0  0  0  0
 31 32  1  0  0  0  0
 31 80  1  1  0  0  0
 32 36  1  0  0  0  0
 32 81  1  6  0  0  0
 33 34  1  0  0  0  0
 34 35  1  0  0  0  0
 34 40  1  0  0  0  0
 34 82  1  6  0  0  0
 35 37  1  0  0  0  0
 36 83  1  0  0  0  0
 36 84  1  0  0  0  0
 37 38  2  0  0  0  0
 37 39  1  0  0  0  0
 39 40  1  0  0  0  0
 39 41  1  0  0  0  0
 40 85  1  0  0  0  0
 40 86  1  0  0  0  0
 41 42  2  0  0  0  0
 41 46  1  0  0  0  0
 42 43  1  0  0  0  0
 42 87  1  0  0  0  0
 43 44  2  0  0  0  0
 44 45  1  0  0  0  0
 44 88  1  0  0  0  0
 45 46  2  0  0  0  0
 45 90  1  0  0  0  0
 46 89  1  0  0  0  0
M  END
>  <charge>
0

>  <KI_NM>
2.62

>  <number_of_rotatable_bonds>
18

>  <lm5_entropy_jk>
42.88787327729588

>  <ligand_crystal_conformation>
A

$$$$
