26-36.pdb
 OpenBabel11252210453D

 79 80  0  0  1  0  0  0  0  0999 V2000
   11.0990   17.8860    7.5580 C   0  0  0  0  0  0  0  0  0  0  0  0
    8.1940   18.5040    8.8760 N   0  0  0  0  0  0  0  0  0  0  0  0
    9.7590   18.3340    6.9640 C   0  0  0  0  0  0  0  0  0  0  0  0
    4.7150   17.5000    9.6100 N   0  0  0  0  0  0  0  0  0  0  0  0
    5.5130   19.3800    8.5700 O   0  0  0  0  0  0  0  0  0  0  0  0
    8.6070   17.7480    7.7640 C   0  0  0  0  0  0  0  0  0  0  0  0
   11.4540   16.0820    5.8910 N   0  0  0  0  0  0  0  0  0  0  0  0
    8.0830   16.6720    7.5240 O   0  0  0  0  0  0  0  0  0  0  0  0
    7.1380   18.0150    9.7840 C   0  0  1  0  0  0  0  0  0  0  0  0
   10.2570   14.1100    5.9300 O   0  0  0  0  0  0  0  0  0  0  0  0
    7.3610   18.5380   11.2330 C   0  0  0  0  0  0  0  0  0  0  0  0
    6.5820   17.6840   12.2420 C   0  0  0  0  0  0  0  0  0  0  0  0
    7.0310   20.0240   11.3840 C   0  0  0  0  0  0  0  0  0  0  0  0
    5.7400   18.3790    9.2280 C   0  0  0  0  0  0  0  0  0  0  0  0
    3.4270   17.4380    8.8720 C   0  0  0  0  0  0  0  0  0  0  0  0
    3.3870   16.2620    7.8750 C   0  0  0  0  0  0  0  0  0  0  0  0
    4.3810   16.3890    6.7110 C   0  0  0  0  0  0  0  0  0  0  0  0
    3.9120   17.3590    5.6150 C   0  0  0  0  0  0  0  0  0  0  0  0
    5.0560   17.9030    4.7410 C   0  0  0  0  0  0  0  0  0  0  0  0
    5.9850   16.8080    4.1930 C   0  0  0  0  0  0  0  0  0  0  0  0
    6.8210   17.3060    3.0030 C   0  0  0  0  0  0  0  0  0  0  0  0
    7.8040   16.2430    2.4850 C   0  0  0  0  0  0  0  0  0  0  0  0
    9.0830   16.1550    3.3280 C   0  0  0  0  0  0  0  0  0  0  0  0
    9.8880   14.8880    3.0050 C   0  0  0  0  0  0  0  0  0  0  0  0
   11.1970   14.8150    3.8070 C   0  0  0  0  0  0  0  0  0  0  0  0
   11.4160   16.3790    7.3400 C   0  0  1  0  0  0  0  0  0  0  0  0
   10.9180   14.9190    5.3010 C   0  0  0  0  0  0  0  0  0  0  0  0
   12.7680   16.0440    8.0360 C   0  0  0  0  0  0  0  0  0  0  0  0
   13.2360   14.6390    7.7750 C   0  0  0  0  0  0  0  0  0  0  0  0
   12.7900   13.5770    8.5790 C   0  0  0  0  0  0  0  0  0  0  0  0
   13.2100   12.2700    8.3260 C   0  0  0  0  0  0  0  0  0  0  0  0
   14.1030   12.0070    7.2810 C   0  0  0  0  0  0  0  0  0  0  0  0
   14.5680   13.0610    6.4890 C   0  0  0  0  0  0  0  0  0  0  0  0
   14.1340   14.3680    6.7290 C   0  0  0  0  0  0  0  0  0  0  0  0
   14.4960   15.1800    6.0980 H   0  0  0  0  0  0  0  0  0  0  0  0
    8.5370   19.4650    9.0170 H   0  0  0  0  0  0  0  0  0  0  0  0
    9.6820   17.9780    5.9040 H   0  0  0  0  0  0  0  0  0  0  0  0
    4.9800   16.5870   10.0280 H   0  0  0  0  0  0  0  0  0  0  0  0
   12.1800   16.6170    5.3820 H   0  0  0  0  0  0  0  0  0  0  0  0
    7.2200   16.8940    9.8250 H   0  0  0  0  0  0  0  0  0  0  0  0
    8.4460   18.3740   11.4520 H   0  0  0  0  0  0  0  0  0  0  0  0
   11.1140   18.0920    8.6570 H   0  0  0  0  0  0  0  0  0  0  0  0
   11.9230   18.5010    7.1230 H   0  0  0  0  0  0  0  0  0  0  0  0
    6.8870   17.9570   13.2770 H   0  0  0  0  0  0  0  0  0  0  0  0
    7.5960   20.6270   10.6420 H   0  0  0  0  0  0  0  0  0  0  0  0
    3.2500   18.4070    8.3380 H   0  0  0  0  0  0  0  0  0  0  0  0
    2.3460   16.1880    7.4750 H   0  0  0  0  0  0  0  0  0  0  0  0
    4.5130   15.3780    6.2600 H   0  0  0  0  0  0  0  0  0  0  0  0
    3.4040   18.2340    6.0840 H   0  0  0  0  0  0  0  0  0  0  0  0
    5.6620   18.6200    5.3400 H   0  0  0  0  0  0  0  0  0  0  0  0
    5.3770   15.9380    3.8580 H   0  0  0  0  0  0  0  0  0  0  0  0
    7.3830   18.2210    3.2950 H   0  0  0  0  0  0  0  0  0  0  0  0
    8.0810   16.4980    1.4360 H   0  0  0  0  0  0  0  0  0  0  0  0
    8.8090   16.1570    4.4090 H   0  0  0  0  0  0  0  0  0  0  0  0
   10.1490   14.8870    1.9190 H   0  0  0  0  0  0  0  0  0  0  0  0
   11.8750   15.6340    3.4590 H   0  0  0  0  0  0  0  0  0  0  0  0
   10.6090   15.7650    7.8090 H   0  0  0  0  0  0  0  0  0  0  0  0
   12.6340   16.2120    9.1350 H   0  0  0  0  0  0  0  0  0  0  0  0
   12.1280   13.7820    9.4210 H   0  0  0  0  0  0  0  0  0  0  0  0
   12.8500   11.4530    8.9550 H   0  0  0  0  0  0  0  0  0  0  0  0
   14.4440   10.9860    7.0910 H   0  0  0  0  0  0  0  0  0  0  0  0
   15.2780   12.8660    5.6790 H   0  0  0  0  0  0  0  0  0  0  0  0
   13.5400   16.7770    7.6960 H   0  0  0  0  0  0  0  0  0  0  0  0
    9.7190   19.4480    6.9540 H   0  0  0  0  0  0  0  0  0  0  0  0
    6.7950   16.6060   12.0780 H   0  0  0  0  0  0  0  0  0  0  0  0
    7.2840   20.3700   12.4110 H   0  0  0  0  0  0  0  0  0  0  0  0
    2.6220   17.2910    9.6430 H   0  0  0  0  0  0  0  0  0  0  0  0
    3.6080   15.3170    8.4290 H   0  0  0  0  0  0  0  0  0  0  0  0
    5.3720   16.7210    7.1020 H   0  0  0  0  0  0  0  0  0  0  0  0
    3.1730   16.8370    4.9630 H   0  0  0  0  0  0  0  0  0  0  0  0
    4.5990   18.4580    3.8880 H   0  0  0  0  0  0  0  0  0  0  0  0
    6.6710   16.4800    5.0070 H   0  0  0  0  0  0  0  0  0  0  0  0
    6.1320   17.5650    2.1680 H   0  0  0  0  0  0  0  0  0  0  0  0
    7.2940   15.2540    2.4770 H   0  0  0  0  0  0  0  0  0  0  0  0
    9.7200   17.0490    3.1240 H   0  0  0  0  0  0  0  0  0  0  0  0
    9.2790   13.9820    3.2250 H   0  0  0  0  0  0  0  0  0  0  0  0
   11.6980   13.8400    3.5930 H   0  0  0  0  0  0  0  0  0  0  0  0
    5.9430   20.2010   11.2280 H   0  0  0  0  0  0  0  0  0  0  0  0
    5.4840   17.8510   12.1560 H   0  0  0  0  0  0  0  0  0  0  0  0
  1 42  1  0  0  0  0
  2 36  1  0  0  0  0
  2  9  1  0  0  0  0
  3  1  1  0  0  0  0
  3  6  1  0  0  0  0
  4 38  1  0  0  0  0
  5 14  2  0  0  0  0
  6  2  1  0  0  0  0
  7 26  1  0  0  0  0
  8  6  2  0  0  0  0
  9 40  1  1  0  0  0
  9 11  1  0  0  0  0
 11 13  1  0  0  0  0
 11 41  1  0  0  0  0
 11 12  1  0  0  0  0
 12 44  1  0  0  0  0
 13 66  1  0  0  0  0
 14  4  1  0  0  0  0
 14  9  1  0  0  0  0
 15  4  1  0  0  0  0
 15 67  1  0  0  0  0
 16 68  1  0  0  0  0
 16 15  1  0  0  0  0
 17 69  1  0  0  0  0
 17 16  1  0  0  0  0
 18 49  1  0  0  0  0
 18 17  1  0  0  0  0
 19 50  1  0  0  0  0
 19 18  1  0  0  0  0
 20 19  1  0  0  0  0
 20 72  1  0  0  0  0
 21 52  1  0  0  0  0
 21 20  1  0  0  0  0
 22 21  1  0  0  0  0
 22 23  1  0  0  0  0
 23 54  1  0  0  0  0
 24 23  1  0  0  0  0
 24 76  1  0  0  0  0
 24 25  1  0  0  0  0
 25 27  1  0  0  0  0
 26  1  1  0  0  0  0
 26 57  1  1  0  0  0
 26 28  1  0  0  0  0
 27  7  1  0  0  0  0
 27 10  2  0  0  0  0
 28 58  1  0  0  0  0
 29 28  1  0  0  0  0
 29 30  2  0  0  0  0
 30 59  1  0  0  0  0
 31 30  1  0  0  0  0
 31 60  1  0  0  0  0
 32 31  2  0  0  0  0
 33 34  2  0  0  0  0
 33 32  1  0  0  0  0
 34 29  1  0  0  0  0
 35 34  1  0  0  0  0
 37  3  1  0  0  0  0
 39  7  1  0  0  0  0
 43  1  1  0  0  0  0
 45 13  1  0  0  0  0
 46 15  1  0  0  0  0
 47 16  1  0  0  0  0
 48 17  1  0  0  0  0
 51 20  1  0  0  0  0
 53 22  1  0  0  0  0
 55 24  1  0  0  0  0
 56 25  1  0  0  0  0
 61 32  1  0  0  0  0
 62 33  1  0  0  0  0
 63 28  1  0  0  0  0
 64  3  1  0  0  0  0
 65 12  1  0  0  0  0
 70 18  1  0  0  0  0
 71 19  1  0  0  0  0
 73 21  1  0  0  0  0
 74 22  1  0  0  0  0
 75 23  1  0  0  0  0
 77 25  1  0  0  0  0
 78 13  1  0  0  0  0
 79 12  1  0  0  0  0
M  END
>  <IC50_NM>
2000

>  <number_of_rotatable_bonds>
3

>  <charge>
0

>  <lm5_entropy_jk>
30.51387600249522

$$$$
