3QTU
 OpenBabel11252210453D

 44 46  0  0  0  0  0  0  0  0999 V2000
   65.9250  154.4530  -50.6240 N   0  0  0  0  0  0  0  0  0  0  0  0
   64.6890  154.9620  -48.6640 N   0  0  0  0  0  0  0  0  0  0  0  0
   67.4140  153.5940  -52.3040 N   0  0  0  0  0  0  0  0  0  0  0  0
   62.3250  152.7230  -42.7670 N   0  0  0  0  0  0  0  0  0  0  0  0
   70.2080  147.0250  -45.4300 N   0  0  0  0  0  0  0  0  0  0  0  0
   67.5920  152.8080  -50.0090 C   0  0  0  0  0  0  0  0  0  0  0  0
   67.0090  153.6170  -51.0170 C   0  0  0  0  0  0  0  0  0  0  0  0
   65.6970  154.2690  -49.3050 C   0  0  0  0  0  0  0  0  0  0  0  0
   64.0140  154.6010  -47.4570 C   0  0  0  0  0  0  0  0  0  0  0  0
   68.4990  151.7370  -50.2660 C   0  0  0  0  0  0  0  0  0  0  0  0
   68.8720  150.8020  -49.1470 C   0  0  0  0  0  0  0  0  0  0  0  0
   63.1000  155.5630  -46.9690 C   0  0  0  0  0  0  0  0  0  0  0  0
   62.3630  155.3030  -45.8210 C   0  0  0  0  0  0  0  0  0  0  0  0
   62.5190  154.0860  -45.1400 C   0  0  0  0  0  0  0  0  0  0  0  0
   63.4350  153.1440  -45.6180 C   0  0  0  0  0  0  0  0  0  0  0  0
   64.1770  153.3840  -46.7790 C   0  0  0  0  0  0  0  0  0  0  0  0
   70.1880  150.3190  -49.1030 C   0  0  0  0  0  0  0  0  0  0  0  0
   70.5940  149.5240  -48.0290 C   0  0  0  0  0  0  0  0  0  0  0  0
   69.7200  149.2840  -46.9650 C   0  0  0  0  0  0  0  0  0  0  0  0
   68.3740  149.6410  -47.0820 C   0  0  0  0  0  0  0  0  0  0  0  0
   67.9440  150.3830  -48.1860 C   0  0  0  0  0  0  0  0  0  0  0  0
   68.9850  151.5540  -51.3820 O   0  0  0  0  0  0  0  0  0  0  0  0
   60.3110  153.0320  -44.4120 O   0  0  0  0  0  0  0  0  0  0  0  0
   61.1340  154.9260  -43.0360 O   0  0  0  0  0  0  0  0  0  0  0  0
   71.7790  148.9550  -45.3680 O   0  0  0  0  0  0  0  0  0  0  0  0
   69.5080  149.2610  -44.3950 O   0  0  0  0  0  0  0  0  0  0  0  0
   66.8900  153.1580  -48.4720 S   0  0  0  0  0  0  0  0  0  0  0  0
   61.4590  153.7300  -43.8270 S   0  0  0  0  0  0  0  0  0  0  0  0
   70.3290  148.7010  -45.4570 S   0  0  0  0  0  0  0  0  0  0  0  0
   64.0960  155.5850  -49.2800 H   0  0  0  0  0  0  0  0  0  0  0  0
   66.9760  154.1960  -53.0240 H   0  0  0  0  0  0  0  0  0  0  0  0
   68.1810  152.9610  -52.5860 H   0  0  0  0  0  0  0  0  0  0  0  0
   62.3780  151.7020  -43.0410 H   0  0  0  0  0  0  0  0  0  0  0  0
   62.2080  152.8270  -41.7500 H   0  0  0  0  0  0  0  0  0  0  0  0
   70.9190  146.5100  -46.0120 H   0  0  0  0  0  0  0  0  0  0  0  0
   69.2710  146.5680  -45.5030 H   0  0  0  0  0  0  0  0  0  0  0  0
   62.9490  156.5020  -47.5050 H   0  0  0  0  0  0  0  0  0  0  0  0
   61.6550  156.0690  -45.4770 H   0  0  0  0  0  0  0  0  0  0  0  0
   63.5950  152.1910  -45.0990 H   0  0  0  0  0  0  0  0  0  0  0  0
   64.8440  152.5990  -47.1370 H   0  0  0  0  0  0  0  0  0  0  0  0
   70.8920  150.5630  -49.9070 H   0  0  0  0  0  0  0  0  0  0  0  0
   71.5900  149.0810  -48.0310 H   0  0  0  0  0  0  0  0  0  0  0  0
   67.6330  149.3570  -46.3240 H   0  0  0  0  0  0  0  0  0  0  0  0
   66.8770  150.6100  -48.2690 H   0  0  0  0  0  0  0  0  0  0  0  0
  1  8  2  0  0  0  0
  2  9  1  0  0  0  0
  2 30  1  0  0  0  0
  3  7  1  0  0  0  0
  3 31  1  0  0  0  0
  3 32  1  0  0  0  0
  4 33  1  0  0  0  0
  4 34  1  0  0  0  0
  5 29  1  0  0  0  0
  5 35  1  0  0  0  0
  5 36  1  0  0  0  0
  6 27  1  0  0  0  0
  7  1  1  0  0  0  0
  7  6  2  0  0  0  0
  8  2  1  0  0  0  0
  8 27  1  0  0  0  0
  9 12  2  0  0  0  0
  9 16  1  0  0  0  0
 10  6  1  0  0  0  0
 10 11  1  0  0  0  0
 11 17  2  0  0  0  0
 11 21  1  0  0  0  0
 12 13  1  0  0  0  0
 12 37  1  0  0  0  0
 13 14  2  0  0  0  0
 13 38  1  0  0  0  0
 14 28  1  0  0  0  0
 15 14  1  0  0  0  0
 15 39  1  0  0  0  0
 16 15  2  0  0  0  0
 16 40  1  0  0  0  0
 17 18  1  0  0  0  0
 17 41  1  0  0  0  0
 18 19  2  0  0  0  0
 18 42  1  0  0  0  0
 19 29  1  0  0  0  0
 20 19  1  0  0  0  0
 20 43  1  0  0  0  0
 21 20  2  0  0  0  0
 21 44  1  0  0  0  0
 22 10  2  0  0  0  0
 23 28  2  0  0  0  0
 28 24  2  0  0  0  0
 28  4  1  0  0  0  0
 29 25  2  0  0  0  0
 29 26  2  0  0  0  0
M  END
>  <lm5_entropy_jk>
23.933690845995674

>  <number_of_rotatable_bonds>
6

>  <IC50_NM>
70

>  <charge>
0

$$$$
