3LJO
 OpenBabel11252210453D

 61 63  0  0  1  0  0  0  0  0999 V2000
    2.2160   20.1750   18.2840 N   0  0  0  0  0  0  0  0  0  0  0  0
    0.1280   20.9830   15.2920 N   0  3  0  0  0  0  0  0  0  0  0  0
    0.7840   17.2890   19.7720 N   0  0  0  0  0  0  0  0  0  0  0  0
   -1.6200   12.4880   14.9250 N   0  3  0  0  0  0  0  0  0  0  0  0
   -2.7280   14.3300   14.0370 N   0  0  0  0  0  0  0  0  0  0  0  0
    2.4040   19.1080   19.3170 C   0  0  1  0  0  0  0  0  0  0  0  0
    3.2220   19.7600   20.4500 C   0  0  0  0  0  0  0  0  0  0  0  0
    3.2940   21.2720   20.1570 C   0  0  0  0  0  0  0  0  0  0  0  0
    2.7450   21.5020   18.7370 C   0  0  0  0  0  0  0  0  0  0  0  0
    1.0020   18.6650   19.7960 C   0  0  0  0  0  0  0  0  0  0  0  0
    1.4960   19.9590   17.1390 C   0  0  0  0  0  0  0  0  0  0  0  0
    1.3660   21.1330   16.1570 C   0  0  0  0  0  0  0  0  0  0  0  0
   -0.0750   22.2200   14.3550 C   0  0  0  0  0  0  0  0  0  0  0  0
    0.8100   22.0790   13.1080 C   0  0  0  0  0  0  0  0  0  0  0  0
    0.5220   23.2350   12.1290 C   0  0  0  0  0  0  0  0  0  0  0  0
   -0.9670   23.3190   11.7670 C   0  0  0  0  0  0  0  0  0  0  0  0
   -1.8390   23.4450   13.0230 C   0  0  0  0  0  0  0  0  0  0  0  0
   -1.5750   22.3040   14.0270 C   0  0  0  0  0  0  0  0  0  0  0  0
   -0.5880   16.7400   19.8440 C   0  0  0  0  0  0  0  0  0  0  0  0
   -0.9330   16.0020   18.5680 C   0  0  0  0  0  0  0  0  0  0  0  0
   -0.9530   14.5980   18.5800 C   0  0  0  0  0  0  0  0  0  0  0  0
   -1.2800   13.8910   17.4300 C   0  0  0  0  0  0  0  0  0  0  0  0
   -1.6030   14.5710   16.2370 C   0  0  0  0  0  0  0  0  0  0  0  0
   -1.5870   15.9800   16.2290 C   0  0  0  0  0  0  0  0  0  0  0  0
   -1.2490   16.6840   17.3840 C   0  0  0  0  0  0  0  0  0  0  0  0
   -2.0000   13.7880   15.0530 C   0  0  0  0  0  0  0  0  0  0  0  0
    0.1560   19.4410   20.2090 O   0  0  0  0  0  0  0  0  0  0  0  0
    1.0090   18.8590   16.8680 O   0  0  0  0  0  0  0  0  0  0  0  0
    2.9670   18.2580   18.8460 H   0  0  0  0  0  0  0  0  0  0  0  0
    4.2490   19.3230   20.4690 H   0  0  0  0  0  0  0  0  0  0  0  0
    2.7420   19.5870   21.4420 H   0  0  0  0  0  0  0  0  0  0  0  0
    2.6820   21.8490   20.8950 H   0  0  0  0  0  0  0  0  0  0  0  0
    4.3450   21.6440   20.2200 H   0  0  0  0  0  0  0  0  0  0  0  0
    0.1930   20.0940   14.7090 H   0  0  0  0  0  0  0  0  0  0  0  0
   -0.7120   20.9010   15.9330 H   0  0  0  0  0  0  0  0  0  0  0  0
    1.9240   22.2680   18.7450 H   0  0  0  0  0  0  0  0  0  0  0  0
    3.5500   21.8320   18.0260 H   0  0  0  0  0  0  0  0  0  0  0  0
    1.2960   22.1290   16.6920 H   0  0  0  0  0  0  0  0  0  0  0  0
    2.2940   21.1760   15.5100 H   0  0  0  0  0  0  0  0  0  0  0  0
    0.2350   23.1290   14.9440 H   0  0  0  0  0  0  0  0  0  0  0  0
    1.8890   22.1240   13.4050 H   0  0  0  0  0  0  0  0  0  0  0  0
    0.6230   21.1080   12.5980 H   0  0  0  0  0  0  0  0  0  0  0  0
    0.8510   24.1940   12.6020 H   0  0  0  0  0  0  0  0  0  0  0  0
    1.1290   23.0750   11.2030 H   0  0  0  0  0  0  0  0  0  0  0  0
   -1.2620   22.4090   11.1940 H   0  0  0  0  0  0  0  0  0  0  0  0
   -1.1350   24.2130   11.1150 H   0  0  0  0  0  0  0  0  0  0  0  0
   -2.9210   23.4250   12.7390 H   0  0  0  0  0  0  0  0  0  0  0  0
   -1.6280   24.4200   13.5310 H   0  0  0  0  0  0  0  0  0  0  0  0
   -1.9230   21.3400   13.6010 H   0  0  0  0  0  0  0  0  0  0  0  0
   -2.1550   22.5180   14.9620 H   0  0  0  0  0  0  0  0  0  0  0  0
    1.5090   16.6290   19.4460 H   0  0  0  0  0  0  0  0  0  0  0  0
   -0.6330   16.0370   20.7250 H   0  0  0  0  0  0  0  0  0  0  0  0
   -1.3380   17.5700   20.0020 H   0  0  0  0  0  0  0  0  0  0  0  0
   -0.7230   14.0530   19.5030 H   0  0  0  0  0  0  0  0  0  0  0  0
   -1.2960   12.8010   17.4780 H   0  0  0  0  0  0  0  0  0  0  0  0
   -1.8400   16.5470   15.3290 H   0  0  0  0  0  0  0  0  0  0  0  0
   -1.2420   17.7810   17.3500 H   0  0  0  0  0  0  0  0  0  0  0  0
   -2.0760   11.8550   14.2270 H   0  0  0  0  0  0  0  0  0  0  0  0
   -0.9420   12.0500   15.5840 H   0  0  0  0  0  0  0  0  0  0  0  0
   -3.1110   13.7040   13.2820 H   0  0  0  0  0  0  0  0  0  0  0  0
   -3.1120   15.2930   14.0940 H   0  0  0  0  0  0  0  0  0  0  0  0
  1  6  1  0  0  0  0
  1  9  1  0  0  0  0
  1 11  1  0  0  0  0
  2 12  1  0  0  0  0
  2 13  1  0  0  0  0
  2 34  1  0  0  0  0
  2 35  1  0  0  0  0
  3 10  1  0  0  0  0
  3 19  1  0  0  0  0
  3 51  1  0  0  0  0
  4 26  2  0  0  0  0
  4 58  1  0  0  0  0
  4 59  1  0  0  0  0
  5 26  1  0  0  0  0
  5 60  1  0  0  0  0
  5 61  1  0  0  0  0
  6  7  1  0  0  0  0
  6 10  1  0  0  0  0
  6 29  1  6  0  0  0
  7  8  1  0  0  0  0
  7 30  1  0  0  0  0
  7 31  1  0  0  0  0
  8  9  1  0  0  0  0
  8 32  1  0  0  0  0
  8 33  1  0  0  0  0
  9 36  1  0  0  0  0
  9 37  1  0  0  0  0
 10 27  2  0  0  0  0
 11 12  1  0  0  0  0
 11 28  2  0  0  0  0
 12 38  1  0  0  0  0
 12 39  1  0  0  0  0
 13 14  1  0  0  0  0
 13 18  1  0  0  0  0
 13 40  1  0  0  0  0
 14 15  1  0  0  0  0
 14 41  1  0  0  0  0
 14 42  1  0  0  0  0
 15 16  1  0  0  0  0
 15 43  1  0  0  0  0
 15 44  1  0  0  0  0
 16 17  1  0  0  0  0
 16 45  1  0  0  0  0
 16 46  1  0  0  0  0
 17 18  1  0  0  0  0
 17 47  1  0  0  0  0
 17 48  1  0  0  0  0
 18 49  1  0  0  0  0
 18 50  1  0  0  0  0
 19 20  1  0  0  0  0
 19 52  1  0  0  0  0
 19 53  1  0  0  0  0
 20 21  2  0  0  0  0
 20 25  1  0  0  0  0
 21 22  1  0  0  0  0
 21 54  1  0  0  0  0
 22 23  2  0  0  0  0
 22 55  1  0  0  0  0
 23 24  1  0  0  0  0
 23 26  1  0  0  0  0
 24 25  2  0  0  0  0
 24 56  1  0  0  0  0
 25 57  1  0  0  0  0
M  CHG  2   2   1   4   1
M  END
>  <number_of_rotatable_bonds>
9

>  <lm5_entropy_jk>
23.819977463858184

>  <deltaG_kcalmol>
-9.04

>  <charge>
2

$$$$
