23-08.pdb
 OpenBabel11252210453D

 74 75  0  0  1  0  0  0  0  0999 V2000
   11.2830   17.8300    7.5510 C   0  0  1  0  0  0  0  0  0  0  0  0
    8.4050   18.4570    8.9300 N   0  0  0  0  0  0  0  0  0  0  0  0
   12.2260   18.6310    6.8050 O   0  0  0  0  0  0  0  0  0  0  0  0
    9.9120   18.2450    6.9780 C   0  0  0  0  0  0  0  0  0  0  0  0
    4.8660   17.5370    9.5830 N   0  0  0  0  0  0  0  0  0  0  0  0
    5.7420   19.2440    8.3220 O   0  0  0  0  0  0  0  0  0  0  0  0
    8.7570   17.7000    7.7960 C   0  0  0  0  0  0  0  0  0  0  0  0
   11.7250   15.9920    5.9250 N   0  0  0  0  0  0  0  0  0  0  0  0
    8.1920   16.6510    7.5450 O   0  0  0  0  0  0  0  0  0  0  0  0
    7.2830   18.0640    9.8090 C   0  0  1  0  0  0  0  0  0  0  0  0
   10.3420   14.1470    5.9490 O   0  0  0  0  0  0  0  0  0  0  0  0
    7.3170   18.8350   11.1310 C   0  0  0  0  0  0  0  0  0  0  0  0
    5.9190   18.3350    9.1150 C   0  0  0  0  0  0  0  0  0  0  0  0
    3.5630   17.4790    8.8700 C   0  0  0  0  0  0  0  0  0  0  0  0
    3.4800   16.3000    7.8810 C   0  0  0  0  0  0  0  0  0  0  0  0
    4.4630   16.3960    6.7050 C   0  0  0  0  0  0  0  0  0  0  0  0
    4.0350   17.4100    5.6320 C   0  0  0  0  0  0  0  0  0  0  0  0
    5.2080   17.9460    4.7930 C   0  0  0  0  0  0  0  0  0  0  0  0
    6.1200   16.8400    4.2410 C   0  0  0  0  0  0  0  0  0  0  0  0
    6.9610   17.3240    3.0510 C   0  0  0  0  0  0  0  0  0  0  0  0
    7.9310   16.2460    2.5360 C   0  0  0  0  0  0  0  0  0  0  0  0
    9.2050   16.1400    3.3860 C   0  0  0  0  0  0  0  0  0  0  0  0
   10.0110   14.8790    3.0410 C   0  0  0  0  0  0  0  0  0  0  0  0
   11.3300   14.7920    3.8260 C   0  0  0  0  0  0  0  0  0  0  0  0
   11.6320   16.3110    7.3590 C   0  0  1  0  0  0  0  0  0  0  0  0
   11.0750   14.8960    5.3230 C   0  0  0  0  0  0  0  0  0  0  0  0
   12.9500   15.9860    8.1170 C   0  0  0  0  0  0  0  0  0  0  0  0
   13.3950   14.5580    7.9490 C   0  0  0  0  0  0  0  0  0  0  0  0
   12.7390   13.5210    8.6310 C   0  0  0  0  0  0  0  0  0  0  0  0
   13.1190   12.1900    8.4410 C   0  0  0  0  0  0  0  0  0  0  0  0
   14.1790   11.8760    7.5850 C   0  0  0  0  0  0  0  0  0  0  0  0
   14.8670   12.9050    6.9360 C   0  0  0  0  0  0  0  0  0  0  0  0
   14.4800   14.2370    7.1180 C   0  0  0  0  0  0  0  0  0  0  0  0
   15.0390   15.0250    6.6160 H   0  0  0  0  0  0  0  0  0  0  0  0
    8.7440   19.4280    9.0300 H   0  0  0  0  0  0  0  0  0  0  0  0
   11.3600   18.0960    8.6320 H   0  0  0  0  0  0  0  0  0  0  0  0
   12.8550   19.0940    7.4730 H   0  0  0  0  0  0  0  0  0  0  0  0
    9.8170   17.8610    5.9280 H   0  0  0  0  0  0  0  0  0  0  0  0
    5.0900   16.6580   10.0880 H   0  0  0  0  0  0  0  0  0  0  0  0
   12.5220   16.4420    5.4470 H   0  0  0  0  0  0  0  0  0  0  0  0
    7.3810   16.9650   10.0330 H   0  0  0  0  0  0  0  0  0  0  0  0
    8.1230   18.4270   11.7810 H   0  0  0  0  0  0  0  0  0  0  0  0
    6.3520   18.7060   11.6810 H   0  0  0  0  0  0  0  0  0  0  0  0
    7.4790   19.9240   10.9660 H   0  0  0  0  0  0  0  0  0  0  0  0
    3.3870   18.4480    8.3370 H   0  0  0  0  0  0  0  0  0  0  0  0
    2.4320   16.2540    7.4930 H   0  0  0  0  0  0  0  0  0  0  0  0
    4.5340   15.3880    6.2350 H   0  0  0  0  0  0  0  0  0  0  0  0
    3.5440   18.2860    6.1170 H   0  0  0  0  0  0  0  0  0  0  0  0
    5.8170   18.6330    5.4230 H   0  0  0  0  0  0  0  0  0  0  0  0
    5.4970   15.9800    3.9050 H   0  0  0  0  0  0  0  0  0  0  0  0
    7.5360   18.2330    3.3380 H   0  0  0  0  0  0  0  0  0  0  0  0
    8.2170   16.4990    1.4880 H   0  0  0  0  0  0  0  0  0  0  0  0
    8.9270   16.1200    4.4650 H   0  0  0  0  0  0  0  0  0  0  0  0
   10.2610   14.8920    1.9520 H   0  0  0  0  0  0  0  0  0  0  0  0
   12.0110   15.6030    3.4700 H   0  0  0  0  0  0  0  0  0  0  0  0
   10.8010   15.7110    7.8150 H   0  0  0  0  0  0  0  0  0  0  0  0
   12.7860   16.2080    9.2030 H   0  0  0  0  0  0  0  0  0  0  0  0
   11.9490   13.7620    9.3350 H   0  0  0  0  0  0  0  0  0  0  0  0
   12.5930   11.3960    8.9740 H   0  0  0  0  0  0  0  0  0  0  0  0
   14.4790   10.8380    7.4350 H   0  0  0  0  0  0  0  0  0  0  0  0
   15.7150   12.6740    6.2850 H   0  0  0  0  0  0  0  0  0  0  0  0
   13.7470   16.6820    7.7600 H   0  0  0  0  0  0  0  0  0  0  0  0
    9.8780   19.3600    6.9380 H   0  0  0  0  0  0  0  0  0  0  0  0
    2.7730   17.3480    9.6620 H   0  0  0  0  0  0  0  0  0  0  0  0
    3.6780   15.3510    8.4370 H   0  0  0  0  0  0  0  0  0  0  0  0
    5.4750   16.6690    7.0880 H   0  0  0  0  0  0  0  0  0  0  0  0
    3.2920   16.9260    4.9550 H   0  0  0  0  0  0  0  0  0  0  0  0
    4.7820   18.5320    3.9440 H   0  0  0  0  0  0  0  0  0  0  0  0
    6.8000   16.5010    5.0540 H   0  0  0  0  0  0  0  0  0  0  0  0
    6.2740   17.5890    2.2150 H   0  0  0  0  0  0  0  0  0  0  0  0
    7.4060   15.2650    2.5240 H   0  0  0  0  0  0  0  0  0  0  0  0
    9.8400   17.0380    3.2000 H   0  0  0  0  0  0  0  0  0  0  0  0
    9.4040   13.9710    3.2560 H   0  0  0  0  0  0  0  0  0  0  0  0
   11.8190   13.8110    3.6080 H   0  0  0  0  0  0  0  0  0  0  0  0
  1 36  1  1  0  0  0
  1 25  1  0  0  0  0
  2 35  1  0  0  0  0
  2 10  1  0  0  0  0
  3 37  1  0  0  0  0
  3  1  1  0  0  0  0
  4  1  1  0  0  0  0
  4  7  1  0  0  0  0
  5 39  1  0  0  0  0
  6 13  2  0  0  0  0
  7  2  1  0  0  0  0
  8 25  1  0  0  0  0
  9  7  2  0  0  0  0
 10 41  1  1  0  0  0
 10 12  1  0  0  0  0
 12 43  1  0  0  0  0
 12 42  1  0  0  0  0
 13  5  1  0  0  0  0
 13 10  1  0  0  0  0
 14  5  1  0  0  0  0
 14 64  1  0  0  0  0
 15 65  1  0  0  0  0
 15 14  1  0  0  0  0
 16 66  1  0  0  0  0
 16 15  1  0  0  0  0
 17 48  1  0  0  0  0
 17 16  1  0  0  0  0
 18 49  1  0  0  0  0
 18 17  1  0  0  0  0
 19 18  1  0  0  0  0
 19 69  1  0  0  0  0
 20 51  1  0  0  0  0
 20 19  1  0  0  0  0
 21 20  1  0  0  0  0
 21 22  1  0  0  0  0
 22 53  1  0  0  0  0
 23 22  1  0  0  0  0
 23 73  1  0  0  0  0
 23 24  1  0  0  0  0
 24 26  1  0  0  0  0
 25 56  1  1  0  0  0
 25 27  1  0  0  0  0
 26  8  1  0  0  0  0
 26 11  2  0  0  0  0
 27 57  1  0  0  0  0
 28 27  1  0  0  0  0
 28 29  2  0  0  0  0
 29 58  1  0  0  0  0
 30 29  1  0  0  0  0
 30 59  1  0  0  0  0
 31 30  2  0  0  0  0
 32 33  2  0  0  0  0
 32 31  1  0  0  0  0
 33 28  1  0  0  0  0
 34 33  1  0  0  0  0
 38  4  1  0  0  0  0
 40  8  1  0  0  0  0
 44 12  1  0  0  0  0
 45 14  1  0  0  0  0
 46 15  1  0  0  0  0
 47 16  1  0  0  0  0
 50 19  1  0  0  0  0
 52 21  1  0  0  0  0
 54 23  1  0  0  0  0
 55 24  1  0  0  0  0
 60 31  1  0  0  0  0
 61 32  1  0  0  0  0
 62 27  1  0  0  0  0
 63  4  1  0  0  0  0
 67 17  1  0  0  0  0
 68 18  1  0  0  0  0
 70 20  1  0  0  0  0
 71 21  1  0  0  0  0
 72 22  1  0  0  0  0
 74 24  1  0  0  0  0
M  END
>  <IC50_NM>
68.4

>  <number_of_rotatable_bonds>
2

>  <charge>
0

>  <lm5_entropy_jk>
22.370975242635136

$$$$
