5QCX
 OpenBabel11252210453D

 83 85  0  0  1  0  0  0  0  0999 V2000
   30.3230    7.4940   21.6580 C   0  0  0  0  0  0  0  0  0  0  0  0
   29.0470    8.3450   21.5830 C   0  0  0  0  0  0  0  0  0  0  0  0
   28.3330    8.2060   20.2740 N   0  0  0  0  0  0  0  0  0  0  0  0
   28.6630    9.2120   19.2320 C   0  0  0  0  0  0  0  0  0  0  0  0
   30.1710    9.2950   18.9410 C   0  0  0  0  0  0  0  0  0  0  0  0
   30.4580   10.1920   17.7300 C   0  0  0  0  0  0  0  0  0  0  0  0
   31.9570   10.2200   17.4010 C   0  0  0  0  0  0  0  0  0  0  0  0
   32.5280    8.8680   16.9500 C   0  0  0  0  0  0  0  0  0  0  0  0
   31.7420    8.1880   15.8160 C   0  0  1  0  0  0  0  0  0  0  0  0
   31.6020    9.0870   14.5870 C   0  0  0  0  0  0  0  0  0  0  0  0
   32.4300    6.8420   15.4720 C   0  0  0  0  0  0  0  0  0  0  0  0
   31.4610    5.8670   14.7910 C   0  0  2  0  0  0  0  0  0  0  0  0
   30.3000    5.5530   15.6580 N   0  0  0  0  0  0  0  0  0  0  0  0
   28.9780    5.8570   15.2680 C   0  0  0  0  0  0  0  0  0  0  0  0
   28.7080    6.0180   14.0840 O   0  0  0  0  0  0  0  0  0  0  0  0
   27.9710    5.8970   16.3710 C   0  0  0  0  0  0  0  0  0  0  0  0
   28.2990    6.4810   17.6040 C   0  0  0  0  0  0  0  0  0  0  0  0
   27.3280    6.5950   18.6010 C   0  0  0  0  0  0  0  0  0  0  0  0
   26.0100    6.1780   18.3530 C   0  0  0  0  0  0  0  0  0  0  0  0
   25.6980    5.5620   17.1380 C   0  0  0  0  0  0  0  0  0  0  0  0
   26.6810    5.3900   16.1590 C   0  0  0  0  0  0  0  0  0  0  0  0
   27.7220    6.9880   19.9960 C   0  0  0  0  0  0  0  0  0  0  0  0
   27.4630    6.2120   20.9140 O   0  0  0  0  0  0  0  0  0  0  0  0
   32.1420    4.4980   14.4970 C   0  0  2  0  0  0  0  0  0  0  0  0
   33.2790    4.6570   13.6320 O   0  0  0  0  0  0  0  0  0  0  0  0
   31.1720    3.6220   13.6830 C   0  0  0  0  0  0  0  0  0  0  0  0
   31.8460    2.3110   13.3080 N   0  3  0  0  0  0  0  0  0  0  0  0
   31.0730    1.5700   12.2120 C   0  0  0  0  0  0  0  0  0  0  0  0
   30.9720    2.3520   10.9230 C   0  0  0  0  0  0  0  0  0  0  0  0
   32.0910    2.9790   10.3600 C   0  0  0  0  0  0  0  0  0  0  0  0
   32.0170    3.6060    9.1080 C   0  0  0  0  0  0  0  0  0  0  0  0
   30.7800    3.6470    8.4440 C   0  0  0  0  0  0  0  0  0  0  0  0
   29.6550    3.0490    9.0150 C   0  0  0  0  0  0  0  0  0  0  0  0
   29.7450    2.3940   10.2480 C   0  0  0  0  0  0  0  0  0  0  0  0
   33.2650    4.2060    8.4850 C   0  0  0  0  0  0  0  0  0  0  0  0
   33.7520    5.3890    9.3320 C   0  0  0  0  0  0  0  0  0  0  0  0
   34.3600    3.1380    8.3330 C   0  0  0  0  0  0  0  0  0  0  0  0
   29.2940    9.4300   21.7140 H   0  0  0  0  0  0  0  0  0  0  0  0
   28.3300    8.0390   22.3880 H   0  0  0  0  0  0  0  0  0  0  0  0
   28.2980   10.2090   19.6010 H   0  0  0  0  0  0  0  0  0  0  0  0
   28.1150    8.9830   18.2830 H   0  0  0  0  0  0  0  0  0  0  0  0
   30.7170    9.7120   19.8190 H   0  0  0  0  0  0  0  0  0  0  0  0
   30.5760    8.2740   18.7410 H   0  0  0  0  0  0  0  0  0  0  0  0
   29.8870    9.8290   16.8450 H   0  0  0  0  0  0  0  0  0  0  0  0
   30.1330   11.2380   17.9370 H   0  0  0  0  0  0  0  0  0  0  0  0
   32.5220   10.5380   18.3070 H   0  0  0  0  0  0  0  0  0  0  0  0
   32.1350   10.9790   16.6020 H   0  0  0  0  0  0  0  0  0  0  0  0
   32.5270    8.1680   17.8180 H   0  0  0  0  0  0  0  0  0  0  0  0
   33.5730    9.0300   16.6130 H   0  0  0  0  0  0  0  0  0  0  0  0
   30.7170    7.9650   16.2020 H   0  0  0  0  0  0  0  0  0  0  0  0
   32.8300    6.3780   16.4040 H   0  0  0  0  0  0  0  0  0  0  0  0
   33.2930    7.0290   14.7880 H   0  0  0  0  0  0  0  0  0  0  0  0
   31.1130    6.3230   13.8310 H   0  0  0  0  0  0  0  0  0  0  0  0
   30.5460    5.4850   16.6630 H   0  0  0  0  0  0  0  0  0  0  0  0
   29.3160    6.8460   17.7800 H   0  0  0  0  0  0  0  0  0  0  0  0
   25.2250    6.3260   19.1040 H   0  0  0  0  0  0  0  0  0  0  0  0
   24.6790    5.2040   16.9490 H   0  0  0  0  0  0  0  0  0  0  0  0
   26.4420    4.8480   15.2450 H   0  0  0  0  0  0  0  0  0  0  0  0
   32.4780    4.0120   15.4400 H   0  0  0  0  0  0  0  0  0  0  0  0
   30.2460    3.4070   14.2920 H   0  0  0  0  0  0  0  0  0  0  0  0
   30.8840    4.1630   12.7350 H   0  0  0  0  0  0  0  0  0  0  0  0
   31.8930    1.7110   14.1800 H   0  0  0  0  0  0  0  0  0  0  0  0
   32.8390    2.5290   12.9580 H   0  0  0  0  0  0  0  0  0  0  0  0
   31.6030    0.5940   12.0080 H   0  0  0  0  0  0  0  0  0  0  0  0
   30.0400    1.3410   12.6120 H   0  0  0  0  0  0  0  0  0  0  0  0
   33.0370    3.0050   10.8940 H   0  0  0  0  0  0  0  0  0  0  0  0
   30.6920    4.1560    7.4770 H   0  0  0  0  0  0  0  0  0  0  0  0
   28.6900    3.0820    8.4960 H   0  0  0  0  0  0  0  0  0  0  0  0
   28.8610    1.9170   10.6800 H   0  0  0  0  0  0  0  0  0  0  0  0
   33.0130    4.5940    7.4610 H   0  0  0  0  0  0  0  0  0  0  0  0
   33.0500    6.2470    9.2240 H   0  0  0  0  0  0  0  0  0  0  0  0
   34.7630    5.7070    8.9950 H   0  0  0  0  0  0  0  0  0  0  0  0
   33.8100    5.1130   10.4050 H   0  0  0  0  0  0  0  0  0  0  0  0
   34.1090    4.8750   14.2220 H   0  0  0  0  0  0  0  0  0  0  0  0
   34.0000    2.2960    7.7040 H   0  0  0  0  0  0  0  0  0  0  0  0
   34.6680    2.7460    9.3260 H   0  0  0  0  0  0  0  0  0  0  0  0
   35.2550    3.5850    7.8390 H   0  0  0  0  0  0  0  0  0  0  0  0
   30.8590    8.6530   13.8960 H   0  0  0  0  0  0  0  0  0  0  0  0
   32.5820    9.1910   14.0750 H   0  0  0  0  0  0  0  0  0  0  0  0
   31.2530   10.0980   14.8920 H   0  0  0  0  0  0  0  0  0  0  0  0
   30.3880    6.9740   22.6380 H   0  0  0  0  0  0  0  0  0  0  0  0
   30.3530    6.7360   20.8430 H   0  0  0  0  0  0  0  0  0  0  0  0
   31.2260    8.1400   21.5350 H   0  0  0  0  0  0  0  0  0  0  0  0
  1  2  1  0  0  0  0
  2  3  1  0  0  0  0
  3  4  1  0  0  0  0
  3 22  1  0  0  0  0
  4  5  1  0  0  0  0
  5  6  1  0  0  0  0
  6  7  1  0  0  0  0
  7  8  1  0  0  0  0
  8  9  1  0  0  0  0
  9 10  1  0  0  0  0
  9 11  1  0  0  0  0
  9 50  1  1  0  0  0
 11 12  1  0  0  0  0
 12 13  1  0  0  0  0
 12 24  1  0  0  0  0
 12 53  1  6  0  0  0
 13 14  1  0  0  0  0
 14 15  2  0  0  0  0
 14 16  1  0  0  0  0
 16 17  2  0  0  0  0
 16 21  1  0  0  0  0
 17 18  1  0  0  0  0
 18 19  2  0  0  0  0
 18 22  1  0  0  0  0
 19 20  1  0  0  0  0
 20 21  2  0  0  0  0
 22 23  2  0  0  0  0
 24 25  1  0  0  0  0
 24 26  1  0  0  0  0
 24 59  1  1  0  0  0
 26 27  1  0  0  0  0
 27 28  1  0  0  0  0
 28 29  1  0  0  0  0
 29 30  2  0  0  0  0
 29 34  1  0  0  0  0
 30 31  1  0  0  0  0
 31 32  2  0  0  0  0
 31 35  1  0  0  0  0
 32 33  1  0  0  0  0
 33 34  2  0  0  0  0
 35 36  1  0  0  0  0
 35 37  1  0  0  0  0
 38  2  1  0  0  0  0
 39  2  1  0  0  0  0
 40  4  1  0  0  0  0
 41  4  1  0  0  0  0
 42  5  1  0  0  0  0
 43  5  1  0  0  0  0
 44  6  1  0  0  0  0
 45  6  1  0  0  0  0
 46  7  1  0  0  0  0
 47  7  1  0  0  0  0
 48  8  1  0  0  0  0
 49  8  1  0  0  0  0
 51 11  1  0  0  0  0
 52 11  1  0  0  0  0
 54 13  1  0  0  0  0
 55 17  1  0  0  0  0
 56 19  1  0  0  0  0
 57 20  1  0  0  0  0
 58 21  1  0  0  0  0
 60 26  1  0  0  0  0
 61 26  1  0  0  0  0
 62 27  1  0  0  0  0
 63 27  1  0  0  0  0
 64 28  1  0  0  0  0
 65 28  1  0  0  0  0
 66 30  1  0  0  0  0
 67 32  1  0  0  0  0
 68 33  1  0  0  0  0
 69 34  1  0  0  0  0
 70 35  1  0  0  0  0
 71 36  1  0  0  0  0
 72 36  1  0  0  0  0
 73 36  1  0  0  0  0
 74 25  1  0  0  0  0
 75 37  1  0  0  0  0
 76 37  1  0  0  0  0
 77 37  1  0  0  0  0
 78 10  1  0  0  0  0
 79 10  1  0  0  0  0
 80 10  1  0  0  0  0
 81  1  1  0  0  0  0
 82  1  1  0  0  0  0
 83  1  1  0  0  0  0
M  CHG  1  27   1
M  END
>  <IC50_NM>
21

>  <number_of_rotatable_bonds>
7

>  <lm5_entropy_jk>
41.171408476251564

>  <charge>
1

>  <old_name>
BACE_6

>  <xray_resolution>
2.2

$$$$
