1ZOE
 OpenBabel11252210453D

 23 24  0  0  1  0  0  0  0  0999 V2000
   21.8220    8.6810   18.7470 C   0  0  0  0  0  0  0  0  0  0  0  0
   21.5490    8.2200   20.0670 C   0  0  0  0  0  0  0  0  0  0  0  0
   22.1840    7.0570   20.5600 C   0  0  0  0  0  0  0  0  0  0  0  0
   22.7610    7.9960   17.9320 C   0  0  0  0  0  0  0  0  0  0  0  0
   23.7090    5.2290   19.9120 N   0  0  0  0  0  0  0  0  0  0  0  0
   23.3520    6.8350   18.4440 C   0  0  0  0  0  0  0  0  0  0  0  0
   23.0490    6.3920   19.6930 C   0  0  0  0  0  0  0  0  0  0  0  0
   24.3900    5.0330   18.7160 C   0  0  0  0  0  0  0  0  0  0  0  0
   24.2200    6.0130   17.8070 N   0  0  0  0  0  0  0  0  0  0  0  0
   25.1620    3.8870   18.5190 N   0  0  0  0  0  0  0  0  0  0  0  0
   25.2700    2.7970   19.5200 C   0  0  0  0  0  0  0  0  0  0  0  0
   25.9110    3.6140   17.2730 C   0  0  0  0  0  0  0  0  0  0  0  0
   20.9110   10.2310   18.0540 Br  0  0  0  0  0  0  0  0  0  0  0  0
   21.8890    6.3980   22.3420 Br  0  0  0  0  0  0  0  0  0  0  0  0
   23.2090    8.6070   16.1670 Br  0  0  0  0  0  0  0  0  0  0  0  0
   20.3000    9.1500   21.1910 Br  0  0  0  0  0  0  0  0  0  0  0  0
   23.6520    4.5950   20.6920 H   0  0  0  0  0  0  0  0  0  0  0  0
   25.7490    4.4080   16.5340 H   0  0  0  0  0  0  0  0  0  0  0  0
   25.8990    1.9690   19.1600 H   0  0  0  0  0  0  0  0  0  0  0  0
   25.5840    2.6680   16.8190 H   0  0  0  0  0  0  0  0  0  0  0  0
   24.2810    2.3710   19.7470 H   0  0  0  0  0  0  0  0  0  0  0  0
   26.9890    3.5470   17.4660 H   0  0  0  0  0  0  0  0  0  0  0  0
   25.7120    3.1620   20.4570 H   0  0  0  0  0  0  0  0  0  0  0  0
  1  2  2  0  0  0  0
  1  4  1  0  0  0  0
  1 13  1  0  0  0  0
  2  3  1  0  0  0  0
  2 16  1  0  0  0  0
  3  7  2  0  0  0  0
  3 14  1  0  0  0  0
  4  6  2  0  0  0  0
  4 15  1  0  0  0  0
  5  7  1  0  0  0  0
  5  8  1  0  0  0  0
  5 17  1  0  0  0  0
  6  7  1  0  0  0  0
  6  9  1  0  0  0  0
  8  9  2  0  0  0  0
  8 10  1  0  0  0  0
 10 11  1  0  0  0  0
 10 12  1  0  0  0  0
 11 19  1  0  0  0  0
 11 21  1  0  0  0  0
 11 23  1  0  0  0  0
 12 18  1  0  0  0  0
 12 20  1  0  0  0  0
 12 22  1  0  0  0  0
M  END
>  <charge>
0

>  <Ki_NM>
45

>  <number_of_rotatable_bonds>
1

>  <lm5_entropy_jk>
28.431029787763457

$$$$
