4LB4
 OpenBabel11252210453D

 35 36  0  0  0  0  0  0  0  0999 V2000
   14.3530  -12.1190   19.2930 Cl  0  0  0  0  0  0  0  0  0  0  0  0
   17.6660   -6.0980   13.2620 C   0  0  0  0  0  0  0  0  0  0  0  0
   16.3280   -6.3040   12.8850 C   0  0  0  0  0  0  0  0  0  0  0  0
   18.3600   -5.0710   12.6210 C   0  0  0  0  0  0  0  0  0  0  0  0
   15.7230   -5.5290   11.8780 C   0  0  0  0  0  0  0  0  0  0  0  0
   17.7940   -4.3270   11.5690 C   0  0  0  0  0  0  0  0  0  0  0  0
   16.4620   -4.5530   11.1920 C   0  0  0  0  0  0  0  0  0  0  0  0
   18.4340   -6.9530   14.2940 C   0  0  0  0  0  0  0  0  0  0  0  0
   17.6080   -7.7960   15.1770 N   0  0  0  0  0  0  0  0  0  0  0  0
   17.5390   -9.1640   15.1370 C   0  0  0  0  0  0  0  0  0  0  0  0
   16.6780   -9.8350   16.1540 C   0  0  0  0  0  0  0  0  0  0  0  0
   16.2170   -9.1740   17.3050 C   0  0  0  0  0  0  0  0  0  0  0  0
   16.3460  -11.1870   15.9430 C   0  0  0  0  0  0  0  0  0  0  0  0
   15.3930   -9.8560   18.2050 C   0  0  0  0  0  0  0  0  0  0  0  0
   15.5830  -11.8720   16.8930 C   0  0  0  0  0  0  0  0  0  0  0  0
   15.1190  -11.2100   18.0250 C   0  0  0  0  0  0  0  0  0  0  0  0
   18.1410   -9.8130   14.3010 O   0  0  0  0  0  0  0  0  0  0  0  0
   16.7060   -7.9130   17.6010 O   0  0  0  0  0  0  0  0  0  0  0  0
   16.4120   -7.0620   18.7550 C   0  0  0  0  0  0  0  0  0  0  0  0
   15.3640   -5.9870   18.5170 C   0  0  0  0  0  0  0  0  0  0  0  0
   14.9040   -5.4730   19.5240 O   0  0  0  0  0  0  0  0  0  0  0  0
   14.9670   -5.7690   17.3900 O   0  5  0  0  0  0  0  0  0  0  0  0
   15.6320   -3.4770    9.8400 Br  0  0  0  0  0  0  0  0  0  0  0  0
   15.6110   -7.2450   13.4970 F   0  0  0  0  0  0  0  0  0  0  0  0
   14.4240   -5.7260   11.5690 F   0  0  0  0  0  0  0  0  0  0  0  0
   18.5290   -3.3870   10.9330 F   0  0  0  0  0  0  0  0  0  0  0  0
   19.6020   -4.8210   13.0340 F   0  0  0  0  0  0  0  0  0  0  0  0
   17.3070   -6.5050   19.0390 H   0  0  0  0  0  0  0  0  0  0  0  0
   19.0470   -6.2860   14.9170 H   0  0  0  0  0  0  0  0  0  0  0  0
   17.0760   -7.3830   15.9410 H   0  0  0  0  0  0  0  0  0  0  0  0
   16.7020  -11.7160   15.0560 H   0  0  0  0  0  0  0  0  0  0  0  0
   15.0380   -9.3650   19.0970 H   0  0  0  0  0  0  0  0  0  0  0  0
   15.3680  -12.9310   16.7610 H   0  0  0  0  0  0  0  0  0  0  0  0
   16.1090   -7.6260   19.6350 H   0  0  0  0  0  0  0  0  0  0  0  0
   19.1500   -7.6010   13.7660 H   0  0  0  0  0  0  0  0  0  0  0  0
  1 16  1  0  0  0  0
  2  3  2  0  0  0  0
  2  4  1  0  0  0  0
  2  8  1  0  0  0  0
  3  5  1  0  0  0  0
  3 24  1  0  0  0  0
  4  6  2  0  0  0  0
  4 27  1  0  0  0  0
  5  7  2  0  0  0  0
  5 25  1  0  0  0  0
  6  7  1  0  0  0  0
  6 26  1  0  0  0  0
  7 23  1  0  0  0  0
  8  9  1  0  0  0  0
  8 29  1  0  0  0  0
  8 35  1  0  0  0  0
  9 10  1  0  0  0  0
  9 30  1  0  0  0  0
 10 11  1  0  0  0  0
 10 17  2  0  0  0  0
 11 12  2  0  0  0  0
 11 13  1  0  0  0  0
 12 14  1  0  0  0  0
 12 18  1  0  0  0  0
 13 15  2  0  0  0  0
 13 31  1  0  0  0  0
 14 16  2  0  0  0  0
 14 32  1  0  0  0  0
 15 16  1  0  0  0  0
 15 33  1  0  0  0  0
 18 19  1  0  0  0  0
 19 20  1  0  0  0  0
 19 28  1  0  0  0  0
 19 34  1  0  0  0  0
 20 21  2  0  0  0  0
 20 22  1  0  0  0  0
M  CHG  1  22  -1
M  END
>  <deltaG_kcalmol>
-10.46

>  <charge>
-1

>  <lm5_entropy_jk>
25.63780735381752

>  <number_of_rotatable_bonds>
7

$$$$
