3KXM
 OpenBabel11252210453D

 29 30  0  0  1  0  0  0  0  0999 V2000
   23.5440    6.8440   18.1960 C   0  0  0  0  0  0  0  0  0  0  0  0
   23.2070    6.3660   19.4700 C   0  0  0  0  0  0  0  0  0  0  0  0
   22.3450    7.0540   20.2840 C   0  0  0  0  0  0  0  0  0  0  0  0
   21.6740    8.2180   19.8530 C   0  0  0  0  0  0  0  0  0  0  0  0
   21.9640    8.6940   18.5490 C   0  0  0  0  0  0  0  0  0  0  0  0
   22.9150    8.0240   17.7340 C   0  0  0  0  0  0  0  0  0  0  0  0
   23.6380    5.2040   20.0180 N   0  0  0  0  0  0  0  0  0  0  0  0
   23.0380    5.2430   21.2170 C   0  0  0  0  0  0  0  0  0  0  0  0
   22.2390    6.3660   21.4720 N   0  0  0  0  0  0  0  0  0  0  0  0
   22.9850    3.8640   22.3250 S   0  0  0  0  0  0  0  0  0  0  0  0
   23.2190    2.4010   21.2200 C   0  0  0  0  0  0  0  0  0  0  0  0
   24.6580    2.1580   20.9410 C   0  0  0  0  0  0  0  0  0  0  0  0
   24.9600    1.8840   19.6300 N   0  0  0  0  0  0  0  0  0  0  0  0
   25.4920    2.1560   21.8240 O   0  0  0  0  0  0  0  0  0  0  0  0
   26.3250    1.5160   19.1340 C   0  0  0  0  0  0  0  0  0  0  0  0
   21.5440    6.7390   22.7260 C   0  0  0  0  0  0  0  0  0  0  0  0
   24.8240    5.8950   17.1210 Br  0  0  0  0  0  0  0  0  0  0  0  0
   23.3350    8.7060   15.9830 Br  0  0  0  0  0  0  0  0  0  0  0  0
   21.0650   10.2630   17.8780 Br  0  0  0  0  0  0  0  0  0  0  0  0
   20.3640    9.1170   20.9360 Br  0  0  0  0  0  0  0  0  0  0  0  0
   21.8090    7.7630   23.0180 H   0  0  0  0  0  0  0  0  0  0  0  0
   22.6770    2.5530   20.2830 H   0  0  0  0  0  0  0  0  0  0  0  0
   24.1750    1.9120   18.9860 H   0  0  0  0  0  0  0  0  0  0  0  0
   27.0100    2.3710   19.2310 H   0  0  0  0  0  0  0  0  0  0  0  0
   21.8310    6.0680   23.5460 H   0  0  0  0  0  0  0  0  0  0  0  0
   22.8430    1.4950   21.7030 H   0  0  0  0  0  0  0  0  0  0  0  0
   26.2930    1.2150   18.0750 H   0  0  0  0  0  0  0  0  0  0  0  0
   20.4590    6.6670   22.5870 H   0  0  0  0  0  0  0  0  0  0  0  0
   26.7300    0.6780   19.7210 H   0  0  0  0  0  0  0  0  0  0  0  0
  1  2  2  0  0  0  0
  1  6  1  0  0  0  0
  1 17  1  0  0  0  0
  2  3  1  0  0  0  0
  2  7  1  0  0  0  0
  3  4  2  0  0  0  0
  3  9  1  0  0  0  0
  4  5  1  0  0  0  0
  4 20  1  0  0  0  0
  5  6  2  0  0  0  0
  5 19  1  0  0  0  0
  6 18  1  0  0  0  0
  7  8  2  0  0  0  0
  8  9  1  0  0  0  0
  8 10  1  0  0  0  0
  9 16  1  0  0  0  0
 10 11  1  0  0  0  0
 11 12  1  0  0  0  0
 11 22  1  0  0  0  0
 11 26  1  0  0  0  0
 12 13  1  0  0  0  0
 12 14  2  0  0  0  0
 13 15  1  0  0  0  0
 13 23  1  0  0  0  0
 15 24  1  0  0  0  0
 15 27  1  0  0  0  0
 15 29  1  0  0  0  0
 16 21  1  0  0  0  0
 16 25  1  0  0  0  0
 16 28  1  0  0  0  0
M  END
>  <Ki_NM>
280

>  <charge>
0

>  <number_of_rotatable_bonds>
4

>  <lm5_entropy_jk>
36.06614597483307

$$$$
