1K1M
 OpenBabel11252210453D

 66 69  0  0  1  0  0  0  0  0999 V2000
    0.6730   21.8600   16.9130 C   0  0  0  0  0  0  0  0  0  0  0  0
    0.1660   21.2120   15.7620 C   0  0  0  0  0  0  0  0  0  0  0  0
    1.0460   20.8100   14.7340 C   0  0  0  0  0  0  0  0  0  0  0  0
    2.4260   21.0050   14.8910 C   0  0  0  0  0  0  0  0  0  0  0  0
    4.3210   21.8090   16.1800 C   0  0  0  0  0  0  0  0  0  0  0  0
    4.8380   22.4450   17.3210 C   0  0  0  0  0  0  0  0  0  0  0  0
    3.9640   22.8980   18.3220 C   0  0  0  0  0  0  0  0  0  0  0  0
    2.5770   22.7140   18.1870 C   0  0  0  0  0  0  0  0  0  0  0  0
    2.0590   22.0640   17.0490 C   0  0  0  0  0  0  0  0  0  0  0  0
    2.9370   21.6180   16.0420 C   0  0  0  0  0  0  0  0  0  0  0  0
   -1.5970   20.9950   15.5790 S   0  0  0  0  0  0  0  0  0  0  0  0
   -2.1180   13.7580   15.1390 C   0  0  0  0  0  0  0  0  0  0  0  0
   -1.9300   19.4710   16.1380 N   0  0  0  0  0  0  0  0  0  0  0  0
   -1.6330   19.0900   17.5610 C   0  0  1  0  0  0  0  0  0  0  0  0
   -1.9660   20.9050   14.1620 O   0  0  0  0  0  0  0  0  0  0  0  0
   -2.3030   21.8980   16.5010 O   0  0  0  0  0  0  0  0  0  0  0  0
   -2.6480   17.9720   17.9570 C   0  0  0  0  0  0  0  0  0  0  0  0
   -0.1530   18.6560   17.8030 C   0  0  0  0  0  0  0  0  0  0  0  0
    0.5240   18.2710   16.8630 O   0  0  0  0  0  0  0  0  0  0  0  0
    2.0200   20.2960   20.8270 N   0  0  0  0  0  0  0  0  0  0  0  0
   -1.7050   12.4630   14.9740 N   0  3  0  0  0  0  0  0  0  0  0  0
    2.8720   20.9550   21.7190 C   0  0  0  0  0  0  0  0  0  0  0  0
    4.0830   20.8700   21.6750 O   0  0  0  0  0  0  0  0  0  0  0  0
   -2.7050   14.3770   14.0770 N   0  0  0  0  0  0  0  0  0  0  0  0
    2.2420   21.7770   22.7800 C   0  0  0  0  0  0  0  0  0  0  0  0
   -1.9200   14.4920   16.4380 C   0  0  0  0  0  0  0  0  0  0  0  0
   -1.3910   13.8360   17.5770 C   0  0  0  0  0  0  0  0  0  0  0  0
   -1.1990   14.5290   18.7840 C   0  0  0  0  0  0  0  0  0  0  0  0
   -1.5690   15.8740   18.8910 C   0  0  0  0  0  0  0  0  0  0  0  0
   -2.1390   16.5390   17.7990 C   0  0  0  0  0  0  0  0  0  0  0  0
   -2.2860   15.8590   16.5790 C   0  0  0  0  0  0  0  0  0  0  0  0
   -0.2580   19.3050   20.3190 C   0  0  0  0  0  0  0  0  0  0  0  0
    0.5520   20.5760   20.6910 C   0  0  0  0  0  0  0  0  0  0  0  0
    2.5850   19.4520   19.7350 C   0  0  0  0  0  0  0  0  0  0  0  0
    1.7050   18.2230   19.4320 C   0  0  0  0  0  0  0  0  0  0  0  0
    0.3310   18.6470   19.1260 N   0  0  0  0  0  0  0  0  0  0  0  0
    1.6980   17.5350   20.2860 H   0  0  0  0  0  0  0  0  0  0  0  0
    0.0100   22.2260   17.7010 H   0  0  0  0  0  0  0  0  0  0  0  0
    0.6810   20.3640   13.8050 H   0  0  0  0  0  0  0  0  0  0  0  0
    3.1070   20.6860   14.1050 H   0  0  0  0  0  0  0  0  0  0  0  0
    4.9970   21.4620   15.4010 H   0  0  0  0  0  0  0  0  0  0  0  0
    5.9140   22.5920   17.4300 H   0  0  0  0  0  0  0  0  0  0  0  0
    4.3620   23.3910   19.2100 H   0  0  0  0  0  0  0  0  0  0  0  0
    1.9110   23.0680   18.9730 H   0  0  0  0  0  0  0  0  0  0  0  0
   -1.2100   19.0580   15.5400 H   0  0  0  0  0  0  0  0  0  0  0  0
   -1.7960   19.9600   18.2180 H   0  0  0  0  0  0  0  0  0  0  0  0
   -3.5730   18.1080   17.3800 H   0  0  0  0  0  0  0  0  0  0  0  0
   -1.3210   11.9540   15.7670 H   0  0  0  0  0  0  0  0  0  0  0  0
   -3.1450   13.7550   13.3950 H   0  0  0  0  0  0  0  0  0  0  0  0
    1.7020   22.6090   22.3230 H   0  0  0  0  0  0  0  0  0  0  0  0
   -1.1220   12.7850   17.5520 H   0  0  0  0  0  0  0  0  0  0  0  0
   -0.7720   14.0280   19.6550 H   0  0  0  0  0  0  0  0  0  0  0  0
   -1.4010   16.4000   19.8290 H   0  0  0  0  0  0  0  0  0  0  0  0
   -2.6890   16.4340   15.7540 H   0  0  0  0  0  0  0  0  0  0  0  0
   -1.3210   19.5460   20.1900 H   0  0  0  0  0  0  0  0  0  0  0  0
    0.4130   21.3390   19.9160 H   0  0  0  0  0  0  0  0  0  0  0  0
    3.6000   19.1240   20.0020 H   0  0  0  0  0  0  0  0  0  0  0  0
    2.1160   17.6650   18.5860 H   0  0  0  0  0  0  0  0  0  0  0  0
   -2.9560   18.1190   18.9990 H   0  0  0  0  0  0  0  0  0  0  0  0
   -2.1850   11.9020   14.2710 H   0  0  0  0  0  0  0  0  0  0  0  0
   -3.1440   15.2820   14.2110 H   0  0  0  0  0  0  0  0  0  0  0  0
    3.0220   22.1690   23.4370 H   0  0  0  0  0  0  0  0  0  0  0  0
   -0.2030   18.6070   21.1690 H   0  0  0  0  0  0  0  0  0  0  0  0
    0.1400   20.9920   21.6230 H   0  0  0  0  0  0  0  0  0  0  0  0
    2.6770   20.0550   18.8210 H   0  0  0  0  0  0  0  0  0  0  0  0
    1.5640   21.1490   23.3600 H   0  0  0  0  0  0  0  0  0  0  0  0
  1  2  2  0  0  0  0
  1  9  1  0  0  0  0
  1 38  1  0  0  0  0
  2  3  1  0  0  0  0
  2 11  1  0  0  0  0
  3  4  2  0  0  0  0
  3 39  1  0  0  0  0
  4 10  1  0  0  0  0
  4 40  1  0  0  0  0
  5  6  2  0  0  0  0
  5 10  1  0  0  0  0
  5 41  1  0  0  0  0
  6  7  1  0  0  0  0
  6 42  1  0  0  0  0
  7  8  2  0  0  0  0
  7 43  1  0  0  0  0
  8  9  1  0  0  0  0
  8 44  1  0  0  0  0
  9 10  2  0  0  0  0
 11 13  1  0  0  0  0
 11 15  2  0  0  0  0
 11 16  2  0  0  0  0
 12 21  2  0  0  0  0
 12 24  1  0  0  0  0
 12 26  1  0  0  0  0
 13 14  1  0  0  0  0
 13 45  1  0  0  0  0
 14 17  1  0  0  0  0
 14 18  1  0  0  0  0
 14 46  1  1  0  0  0
 17 30  1  0  0  0  0
 17 47  1  0  0  0  0
 17 59  1  0  0  0  0
 18 19  2  0  0  0  0
 18 36  1  0  0  0  0
 20 22  1  0  0  0  0
 20 33  1  0  0  0  0
 20 34  1  0  0  0  0
 21 48  1  0  0  0  0
 21 60  1  0  0  0  0
 22 23  2  0  0  0  0
 22 25  1  0  0  0  0
 24 49  1  0  0  0  0
 24 61  1  0  0  0  0
 25 50  1  0  0  0  0
 25 62  1  0  0  0  0
 25 66  1  0  0  0  0
 26 27  2  0  0  0  0
 26 31  1  0  0  0  0
 27 28  1  0  0  0  0
 27 51  1  0  0  0  0
 28 29  2  0  0  0  0
 28 52  1  0  0  0  0
 29 30  1  0  0  0  0
 29 53  1  0  0  0  0
 30 31  2  0  0  0  0
 31 54  1  0  0  0  0
 32 33  1  0  0  0  0
 32 36  1  0  0  0  0
 32 55  1  0  0  0  0
 32 63  1  0  0  0  0
 33 56  1  0  0  0  0
 33 64  1  0  0  0  0
 34 35  1  0  0  0  0
 34 57  1  0  0  0  0
 34 65  1  0  0  0  0
 35 36  1  0  0  0  0
 35 37  1  0  0  0  0
 35 58  1  0  0  0  0
M  CHG  1  21   1
M  END
>  <deltaG_kcalmol>
-10.10

>  <charge>
1

>  <lm5_entropy_jk>
30.960690819094914

>  <number_of_rotatable_bonds>
9

$$$$
