1K1M
 OpenBabel11252210453D

 66 69  0  0  1  0  0  0  0  0999 V2000
    0.6570   21.9660   16.7630 C   0  0  0  0  0  0  0  0  0  0  0  0
    0.1600   21.2190   15.6680 C   0  0  0  0  0  0  0  0  0  0  0  0
    1.0520   20.6900   14.7090 C   0  0  0  0  0  0  0  0  0  0  0  0
    2.4320   20.8890   14.8690 C   0  0  0  0  0  0  0  0  0  0  0  0
    4.3140   21.8180   16.0930 C   0  0  0  0  0  0  0  0  0  0  0  0
    4.8200   22.5670   17.1700 C   0  0  0  0  0  0  0  0  0  0  0  0
    3.9360   23.1140   18.1130 C   0  0  0  0  0  0  0  0  0  0  0  0
    2.5490   22.9190   17.9820 C   0  0  0  0  0  0  0  0  0  0  0  0
    2.0430   22.1650   16.9040 C   0  0  0  0  0  0  0  0  0  0  0  0
    2.9310   21.6160   15.9580 C   0  0  0  0  0  0  0  0  0  0  0  0
   -1.6030   21.0300   15.4600 S   0  0  0  0  0  0  0  0  0  0  0  0
   -1.9840   13.8550   15.0690 C   0  0  0  0  0  0  0  0  0  0  0  0
   -1.9570   19.5320   16.0700 N   0  0  0  0  0  0  0  0  0  0  0  0
   -1.5770   19.1490   17.4720 C   0  0  1  0  0  0  0  0  0  0  0  0
   -1.9430   20.8870   14.0410 O   0  0  0  0  0  0  0  0  0  0  0  0
   -2.3190   21.9720   16.3340 O   0  0  0  0  0  0  0  0  0  0  0  0
   -2.5880   18.0400   17.9100 C   0  0  0  0  0  0  0  0  0  0  0  0
   -0.0780   18.7130   17.6670 C   0  0  0  0  0  0  0  0  0  0  0  0
    0.5740   18.2920   16.7220 O   0  0  0  0  0  0  0  0  0  0  0  0
    2.0220   20.4410   20.7830 N   0  0  0  0  0  0  0  0  0  0  0  0
   -1.6860   12.5230   14.9870 N   0  3  0  0  0  0  0  0  0  0  0  0
    2.8030   21.0850   21.7490 C   0  0  0  0  0  0  0  0  0  0  0  0
    4.0060   20.9530   21.8260 O   0  0  0  0  0  0  0  0  0  0  0  0
   -2.5490   14.4630   13.9830 N   0  0  0  0  0  0  0  0  0  0  0  0
    2.1070   21.9660   22.7180 C   0  0  0  0  0  0  0  0  0  0  0  0
   -1.7870   14.5980   16.3600 C   0  0  0  0  0  0  0  0  0  0  0  0
   -1.1690   13.9690   17.4700 C   0  0  0  0  0  0  0  0  0  0  0  0
   -1.0020   14.6520   18.6840 C   0  0  0  0  0  0  0  0  0  0  0  0
   -1.4560   15.9690   18.8170 C   0  0  0  0  0  0  0  0  0  0  0  0
   -2.0720   16.6150   17.7400 C   0  0  0  0  0  0  0  0  0  0  0  0
   -2.2210   15.9400   16.5200 C   0  0  0  0  0  0  0  0  0  0  0  0
   -0.1660   19.3650   20.1830 C   0  0  0  0  0  0  0  0  0  0  0  0
    0.5600   20.6770   20.5710 C   0  0  0  0  0  0  0  0  0  0  0  0
    2.6690   19.6870   19.6720 C   0  0  0  0  0  0  0  0  0  0  0  0
    1.8720   18.4290   19.2480 C   0  0  0  0  0  0  0  0  0  0  0  0
    0.4590   18.7690   18.9720 N   0  0  0  0  0  0  0  0  0  0  0  0
    1.9250   17.6650   20.0340 H   0  0  0  0  0  0  0  0  0  0  0  0
   -0.0150   22.4190   17.4980 H   0  0  0  0  0  0  0  0  0  0  0  0
    0.6940   20.1420   13.8340 H   0  0  0  0  0  0  0  0  0  0  0  0
    3.1240   20.4880   14.1310 H   0  0  0  0  0  0  0  0  0  0  0  0
    4.9980   21.3970   15.3580 H   0  0  0  0  0  0  0  0  0  0  0  0
    5.8950   22.7260   17.2730 H   0  0  0  0  0  0  0  0  0  0  0  0
    4.3270   23.6960   18.9500 H   0  0  0  0  0  0  0  0  0  0  0  0
    1.8750   23.3540   18.7200 H   0  0  0  0  0  0  0  0  0  0  0  0
   -1.3500   19.0560   15.4000 H   0  0  0  0  0  0  0  0  0  0  0  0
   -1.7140   20.0220   18.1310 H   0  0  0  0  0  0  0  0  0  0  0  0
   -3.5290   18.1670   17.3540 H   0  0  0  0  0  0  0  0  0  0  0  0
   -1.4980   12.0190   15.8460 H   0  0  0  0  0  0  0  0  0  0  0  0
   -3.0300   13.8370   13.3320 H   0  0  0  0  0  0  0  0  0  0  0  0
    1.5950   22.7660   22.1780 H   0  0  0  0  0  0  0  0  0  0  0  0
   -0.8000   12.9490   17.4130 H   0  0  0  0  0  0  0  0  0  0  0  0
   -0.5160   14.1670   19.5290 H   0  0  0  0  0  0  0  0  0  0  0  0
   -1.3060   16.4990   19.7540 H   0  0  0  0  0  0  0  0  0  0  0  0
   -2.6730   16.4990   15.7080 H   0  0  0  0  0  0  0  0  0  0  0  0
   -1.2440   19.5390   20.0670 H   0  0  0  0  0  0  0  0  0  0  0  0
    0.4370   21.4170   19.7690 H   0  0  0  0  0  0  0  0  0  0  0  0
    3.6900   19.3990   19.9630 H   0  0  0  0  0  0  0  0  0  0  0  0
    2.3310   17.9900   18.3540 H   0  0  0  0  0  0  0  0  0  0  0  0
   -2.8780   18.1940   18.9560 H   0  0  0  0  0  0  0  0  0  0  0  0
   -2.1610   11.9810   14.2650 H   0  0  0  0  0  0  0  0  0  0  0  0
   -2.9490   15.3920   14.0870 H   0  0  0  0  0  0  0  0  0  0  0  0
    2.8510   22.4110   23.3850 H   0  0  0  0  0  0  0  0  0  0  0  0
   -0.0600   18.6560   21.0160 H   0  0  0  0  0  0  0  0  0  0  0  0
    0.0850   21.1010   21.4680 H   0  0  0  0  0  0  0  0  0  0  0  0
    2.7660   20.3500   18.8010 H   0  0  0  0  0  0  0  0  0  0  0  0
    1.3990   21.3820   23.3080 H   0  0  0  0  0  0  0  0  0  0  0  0
  1  2  2  0  0  0  0
  1  9  1  0  0  0  0
  1 38  1  0  0  0  0
  2  3  1  0  0  0  0
  2 11  1  0  0  0  0
  3  4  2  0  0  0  0
  3 39  1  0  0  0  0
  4 10  1  0  0  0  0
  4 40  1  0  0  0  0
  5  6  2  0  0  0  0
  5 10  1  0  0  0  0
  5 41  1  0  0  0  0
  6  7  1  0  0  0  0
  6 42  1  0  0  0  0
  7  8  2  0  0  0  0
  7 43  1  0  0  0  0
  8  9  1  0  0  0  0
  8 44  1  0  0  0  0
  9 10  2  0  0  0  0
 11 13  1  0  0  0  0
 11 15  2  0  0  0  0
 11 16  2  0  0  0  0
 12 21  2  0  0  0  0
 12 24  1  0  0  0  0
 12 26  1  0  0  0  0
 13 14  1  0  0  0  0
 13 45  1  0  0  0  0
 14 17  1  0  0  0  0
 14 18  1  0  0  0  0
 14 46  1  1  0  0  0
 17 30  1  0  0  0  0
 17 47  1  0  0  0  0
 17 59  1  0  0  0  0
 18 19  2  0  0  0  0
 18 36  1  0  0  0  0
 20 22  1  0  0  0  0
 20 33  1  0  0  0  0
 20 34  1  0  0  0  0
 21 48  1  0  0  0  0
 21 60  1  0  0  0  0
 22 23  2  0  0  0  0
 22 25  1  0  0  0  0
 24 49  1  0  0  0  0
 24 61  1  0  0  0  0
 25 50  1  0  0  0  0
 25 62  1  0  0  0  0
 25 66  1  0  0  0  0
 26 27  2  0  0  0  0
 26 31  1  0  0  0  0
 27 28  1  0  0  0  0
 27 51  1  0  0  0  0
 28 29  2  0  0  0  0
 28 52  1  0  0  0  0
 29 30  1  0  0  0  0
 29 53  1  0  0  0  0
 30 31  2  0  0  0  0
 31 54  1  0  0  0  0
 32 33  1  0  0  0  0
 32 36  1  0  0  0  0
 32 55  1  0  0  0  0
 32 63  1  0  0  0  0
 33 56  1  0  0  0  0
 33 64  1  0  0  0  0
 34 35  1  0  0  0  0
 34 57  1  0  0  0  0
 34 65  1  0  0  0  0
 35 36  1  0  0  0  0
 35 37  1  0  0  0  0
 35 58  1  0  0  0  0
M  CHG  1  21   1
M  END
>  <deltaG_kcalmol>
-10.10

>  <charge>
1

>  <lm5_entropy_jk>
30.960690819094914

>  <number_of_rotatable_bonds>
9

$$$$
