model16e
 OpenBabel11252210453D

 93 97  0  0  1  0  0  0  0  0999 V2000
    8.3810   -5.9930   18.2040 C   0  0  0  0  0  0  0  0  0  0  0  0
    7.6830   -4.8950   17.7070 O   0  0  0  0  0  0  0  0  0  0  0  0
    7.6520   -6.9430   18.9580 C   0  0  0  0  0  0  0  0  0  0  0  0
    6.6210   -3.5210   14.5730 O   0  0  0  0  0  0  0  0  0  0  0  0
    8.2590   -8.1340   19.3740 C   0  0  0  0  0  0  0  0  0  0  0  0
    5.6870   -3.3390   16.6290 N   0  0  0  0  0  0  0  0  0  0  0  0
    9.6090   -8.3790   19.0960 C   0  0  0  0  0  0  0  0  0  0  0  0
    7.1890    0.8870   12.7280 C   0  0  0  0  0  0  0  0  0  0  0  0
    4.5490    0.3350   13.6290 N   0  0  0  0  0  0  0  0  0  0  0  0
    4.8400    0.8540   16.3170 O   0  0  0  0  0  0  0  0  0  0  0  0
   10.3590   -7.4080   18.4200 C   0  0  0  0  0  0  0  0  0  0  0  0
    7.0970    2.2220   12.3070 C   0  0  0  0  0  0  0  0  0  0  0  0
    3.4720   -1.5700   13.0390 O   0  0  0  0  0  0  0  0  0  0  0  0
    9.7700   -6.2110   17.9840 C   0  0  0  0  0  0  0  0  0  0  0  0
    7.3170    2.5600   10.9620 C   0  0  0  0  0  0  0  0  0  0  0  0
    6.1960   -6.7260   19.3110 C   0  0  0  0  0  0  0  0  0  0  0  0
    7.6270    1.5530   10.0340 C   0  0  0  0  0  0  0  0  0  0  0  0
   10.7000   -5.1920   17.3510 C   0  0  0  0  0  0  0  0  0  0  0  0
    7.7310    0.2160   10.4530 C   0  0  0  0  0  0  0  0  0  0  0  0
    7.5070   -0.1140   11.8010 C   0  0  0  0  0  0  0  0  0  0  0  0
    7.9480   -4.2660   16.4210 C   0  0  0  0  0  0  0  0  0  0  0  0
    6.7070   -3.6680   15.7790 C   0  0  0  0  0  0  0  0  0  0  0  0
    4.3710   -2.9000   16.1810 C   0  0  1  0  0  0  0  0  0  0  0  0
    2.3360   -6.8910   15.5430 C   0  0  0  0  0  0  0  0  0  0  0  0
    2.5140   -7.7560   16.6360 C   0  0  0  0  0  0  0  0  0  0  0  0
    2.9370   -7.2450   17.8720 C   0  0  0  0  0  0  0  0  0  0  0  0
    3.2040   -5.8720   18.0020 C   0  0  0  0  0  0  0  0  0  0  0  0
    3.0660   -5.0130   16.9030 C   0  0  0  0  0  0  0  0  0  0  0  0
    2.6160   -5.5220   15.6780 C   0  0  0  0  0  0  0  0  0  0  0  0
    3.2880   -3.5300   17.0790 C   0  0  0  0  0  0  0  0  0  0  0  0
    4.1960   -1.3820   16.3250 C   0  0  0  0  0  0  0  0  0  0  0  0
    5.3170   -0.4160   15.9160 C   0  0  1  0  0  0  0  0  0  0  0  0
    5.6410   -0.3090   14.3930 C   0  0  2  0  0  0  0  0  0  0  0  0
    3.5710   -0.3580   12.9630 C   0  0  0  0  0  0  0  0  0  0  0  0
    2.6580    0.4760   12.0450 C   0  0  1  0  0  0  0  0  0  0  0  0
    2.0130    1.6070   12.7040 O   0  0  0  0  0  0  0  0  0  0  0  0
    6.9310    0.5300   14.1770 C   0  0  0  0  0  0  0  0  0  0  0  0
    1.8670    2.6730   11.8620 C   0  0  0  0  0  0  0  0  0  0  0  0
    1.2460    3.6930   12.0980 O   0  0  0  0  0  0  0  0  0  0  0  0
    2.6650    2.4470   10.7660 N   0  0  0  0  0  0  0  0  0  0  0  0
    3.3640    1.1610   10.8550 C   0  0  0  0  0  0  0  0  0  0  0  0
    2.7290    3.2600    9.6110 C   0  0  0  0  0  0  0  0  0  0  0  0
    3.9710    3.5830    9.0480 C   0  0  0  0  0  0  0  0  0  0  0  0
    4.0580    4.3700    7.8790 C   0  0  0  0  0  0  0  0  0  0  0  0
    2.8640    4.8130    7.2670 C   0  0  0  0  0  0  0  0  0  0  0  0
    1.6150    4.4900    7.8270 C   0  0  0  0  0  0  0  0  0  0  0  0
    1.5530    3.7170    9.0000 C   0  0  0  0  0  0  0  0  0  0  0  0
    5.4090    4.7410    7.3170 C   0  0  0  0  0  0  0  0  0  0  0  0
    6.3570    4.9960    8.0390 O   0  0  0  0  0  0  0  0  0  0  0  0
    5.5750    4.8090    5.8350 C   0  0  0  0  0  0  0  0  0  0  0  0
    5.9430   -7.1240   20.2970 H   0  0  0  0  0  0  0  0  0  0  0  0
    5.5590   -7.2120   18.5660 H   0  0  0  0  0  0  0  0  0  0  0  0
    5.9420   -5.6590   19.3100 H   0  0  0  0  0  0  0  0  0  0  0  0
    5.8310   -3.6100   17.5960 H   0  0  0  0  0  0  0  0  0  0  0  0
    4.5610    1.3380   13.4990 H   0  0  0  0  0  0  0  0  0  0  0  0
    4.9160    1.3770   15.4950 H   0  0  0  0  0  0  0  0  0  0  0  0
    6.8620    3.0050   13.0250 H   0  0  0  0  0  0  0  0  0  0  0  0
    7.6760   -8.8760   19.9170 H   0  0  0  0  0  0  0  0  0  0  0  0
    7.2520    3.5990   10.6390 H   0  0  0  0  0  0  0  0  0  0  0  0
    7.7910    1.8120    8.9890 H   0  0  0  0  0  0  0  0  0  0  0  0
   10.0780   -9.3090   19.4210 H   0  0  0  0  0  0  0  0  0  0  0  0
    7.9870   -0.5580    9.7350 H   0  0  0  0  0  0  0  0  0  0  0  0
   11.4100   -7.5990   18.2240 H   0  0  0  0  0  0  0  0  0  0  0  0
    7.5870   -1.1460   12.1300 H   0  0  0  0  0  0  0  0  0  0  0  0
    8.6750   -3.4540   16.5100 H   0  0  0  0  0  0  0  0  0  0  0  0
    4.2170   -3.1930   15.1250 H   0  0  0  0  0  0  0  0  0  0  0  0
    8.3130   -5.0020   15.6970 H   0  0  0  0  0  0  0  0  0  0  0  0
   11.7420   -5.3890   17.6270 H   0  0  0  0  0  0  0  0  0  0  0  0
   10.4830   -4.1820   17.7140 H   0  0  0  0  0  0  0  0  0  0  0  0
   10.6320   -5.2070   16.2590 H   0  0  0  0  0  0  0  0  0  0  0  0
    1.9850   -7.2810   14.5930 H   0  0  0  0  0  0  0  0  0  0  0  0
    2.3180   -8.8220   16.5350 H   0  0  0  0  0  0  0  0  0  0  0  0
    3.0550   -7.9090   18.7280 H   0  0  0  0  0  0  0  0  0  0  0  0
    3.5150   -5.4730   18.9640 H   0  0  0  0  0  0  0  0  0  0  0  0
    2.4630   -4.8480   14.8410 H   0  0  0  0  0  0  0  0  0  0  0  0
    2.3300   -3.0280   16.9030 H   0  0  0  0  0  0  0  0  0  0  0  0
    3.5290   -3.3210   18.1270 H   0  0  0  0  0  0  0  0  0  0  0  0
    4.0370   -1.1860   17.3880 H   0  0  0  0  0  0  0  0  0  0  0  0
    3.2740   -1.0840   15.8130 H   0  0  0  0  0  0  0  0  0  0  0  0
    6.2380   -0.6780   16.4650 H   0  0  0  0  0  0  0  0  0  0  0  0
    5.8020   -1.3300   14.0110 H   0  0  0  0  0  0  0  0  0  0  0  0
    1.8950   -0.2280   11.6820 H   0  0  0  0  0  0  0  0  0  0  0  0
    6.8960    1.4440   14.7830 H   0  0  0  0  0  0  0  0  0  0  0  0
    7.7950   -0.0140   14.5810 H   0  0  0  0  0  0  0  0  0  0  0  0
    3.2450    0.5880    9.9240 H   0  0  0  0  0  0  0  0  0  0  0  0
    4.4420    1.3100   11.0420 H   0  0  0  0  0  0  0  0  0  0  0  0
    4.8790    3.2180    9.5210 H   0  0  0  0  0  0  0  0  0  0  0  0
    2.9020    5.4260    6.3660 H   0  0  0  0  0  0  0  0  0  0  0  0
    0.6990    4.8480    7.3550 H   0  0  0  0  0  0  0  0  0  0  0  0
    0.5890    3.4650    9.4340 H   0  0  0  0  0  0  0  0  0  0  0  0
    6.6360    4.7010    5.5840 H   0  0  0  0  0  0  0  0  0  0  0  0
    5.0090    3.9950    5.3700 H   0  0  0  0  0  0  0  0  0  0  0  0
    5.2060    5.7720    5.4690 H   0  0  0  0  0  0  0  0  0  0  0  0
  1  2  1  0  0  0  0
  1  3  2  0  0  0  0
  1 14  1  0  0  0  0
  2 21  1  0  0  0  0
  3  5  1  0  0  0  0
  3 16  1  0  0  0  0
  4 22  2  0  0  0  0
  5  7  2  0  0  0  0
  5 58  1  0  0  0  0
  6 22  1  0  0  0  0
  6 23  1  0  0  0  0
  6 54  1  0  0  0  0
  7 11  1  0  0  0  0
  7 61  1  0  0  0  0
  8 12  2  0  0  0  0
  8 20  1  0  0  0  0
  8 37  1  0  0  0  0
  9 33  1  0  0  0  0
  9 34  1  0  0  0  0
  9 55  1  0  0  0  0
 10 32  1  0  0  0  0
 10 56  1  0  0  0  0
 11 14  2  0  0  0  0
 11 63  1  0  0  0  0
 12 15  1  0  0  0  0
 12 57  1  0  0  0  0
 13 34  2  0  0  0  0
 14 18  1  0  0  0  0
 15 17  2  0  0  0  0
 15 59  1  0  0  0  0
 16 51  1  0  0  0  0
 16 52  1  0  0  0  0
 16 53  1  0  0  0  0
 17 19  1  0  0  0  0
 17 60  1  0  0  0  0
 18 68  1  0  0  0  0
 18 69  1  0  0  0  0
 18 70  1  0  0  0  0
 19 20  2  0  0  0  0
 19 62  1  0  0  0  0
 20 64  1  0  0  0  0
 21 22  1  0  0  0  0
 21 65  1  0  0  0  0
 21 67  1  0  0  0  0
 23 30  1  0  0  0  0
 23 31  1  0  0  0  0
 23 66  1  6  0  0  0
 24 25  2  0  0  0  0
 24 29  1  0  0  0  0
 24 71  1  0  0  0  0
 25 26  1  0  0  0  0
 25 72  1  0  0  0  0
 26 27  2  0  0  0  0
 26 73  1  0  0  0  0
 27 28  1  0  0  0  0
 27 74  1  0  0  0  0
 28 29  2  0  0  0  0
 28 30  1  0  0  0  0
 29 75  1  0  0  0  0
 30 76  1  0  0  0  0
 30 77  1  0  0  0  0
 31 32  1  0  0  0  0
 31 78  1  0  0  0  0
 31 79  1  0  0  0  0
 32 33  1  0  0  0  0
 32 80  1  1  0  0  0
 33 37  1  0  0  0  0
 33 81  1  6  0  0  0
 34 35  1  0  0  0  0
 35 36  1  0  0  0  0
 35 41  1  0  0  0  0
 35 82  1  6  0  0  0
 36 38  1  0  0  0  0
 37 83  1  0  0  0  0
 37 84  1  0  0  0  0
 38 39  2  0  0  0  0
 38 40  1  0  0  0  0
 40 41  1  0  0  0  0
 40 42  1  0  0  0  0
 41 85  1  0  0  0  0
 41 86  1  0  0  0  0
 42 43  2  0  0  0  0
 42 47  1  0  0  0  0
 43 44  1  0  0  0  0
 43 87  1  0  0  0  0
 44 45  2  0  0  0  0
 44 48  1  0  0  0  0
 45 46  1  0  0  0  0
 45 88  1  0  0  0  0
 46 47  2  0  0  0  0
 46 89  1  0  0  0  0
 47 90  1  0  0  0  0
 48 49  2  0  0  0  0
 48 50  1  0  0  0  0
 50 91  1  0  0  0  0
 50 92  1  0  0  0  0
 50 93  1  0  0  0  0
M  END
>  <charge>
0

>  <KI_NM>
35.11

>  <number_of_rotatable_bonds>
17

>  <lm5_entropy_jk>
43.769413455775634

>  <ligand_crystal_conformation>
A

$$$$
