model16e
 OpenBabel11252210453D

 93 97  0  0  1  0  0  0  0  0999 V2000
    8.3720   -5.6580   17.9470 C   0  0  0  0  0  0  0  0  0  0  0  0
    7.8910   -4.4240   17.5400 O   0  0  0  0  0  0  0  0  0  0  0  0
    7.5340   -6.4770   18.7390 C   0  0  0  0  0  0  0  0  0  0  0  0
    6.8650   -3.0300   14.3800 O   0  0  0  0  0  0  0  0  0  0  0  0
    7.9360   -7.7740   19.0760 C   0  0  0  0  0  0  0  0  0  0  0  0
    5.7710   -3.2590   16.3520 N   0  0  0  0  0  0  0  0  0  0  0  0
    9.1860   -8.2590   18.6700 C   0  0  0  0  0  0  0  0  0  0  0  0
    7.1400    0.9950   12.5100 C   0  0  0  0  0  0  0  0  0  0  0  0
    4.4020    0.5750   13.6120 N   0  0  0  0  0  0  0  0  0  0  0  0
    4.9950    0.8960   16.3220 O   0  0  0  0  0  0  0  0  0  0  0  0
   10.0460   -7.4280   17.9410 C   0  0  0  0  0  0  0  0  0  0  0  0
    6.9130    2.2720   11.9770 C   0  0  0  0  0  0  0  0  0  0  0  0
    3.6790   -1.0900   12.2450 O   0  0  0  0  0  0  0  0  0  0  0  0
    9.6640   -6.1270   17.5900 C   0  0  0  0  0  0  0  0  0  0  0  0
    7.2340    2.5490   10.6380 C   0  0  0  0  0  0  0  0  0  0  0  0
    6.1840   -6.0020   19.2410 C   0  0  0  0  0  0  0  0  0  0  0  0
    7.7880    1.5420    9.8320 C   0  0  0  0  0  0  0  0  0  0  0  0
   10.7050   -5.2630   16.9000 C   0  0  0  0  0  0  0  0  0  0  0  0
    8.0220    0.2630   10.3650 C   0  0  0  0  0  0  0  0  0  0  0  0
    7.6910   -0.0090   11.7030 C   0  0  0  0  0  0  0  0  0  0  0  0
    8.1230   -3.8960   16.2060 C   0  0  0  0  0  0  0  0  0  0  0  0
    6.8760   -3.3470   15.5560 C   0  0  0  0  0  0  0  0  0  0  0  0
    4.4620   -2.8430   15.8890 C   0  0  1  0  0  0  0  0  0  0  0  0
    3.0980   -7.0600   15.1230 C   0  0  0  0  0  0  0  0  0  0  0  0
    3.0500   -7.8770   16.2640 C   0  0  0  0  0  0  0  0  0  0  0  0
    3.1090   -7.2990   17.5410 C   0  0  0  0  0  0  0  0  0  0  0  0
    3.2330   -5.9050   17.6680 C   0  0  0  0  0  0  0  0  0  0  0  0
    3.3010   -5.0850   16.5300 C   0  0  0  0  0  0  0  0  0  0  0  0
    3.2080   -5.6650   15.2580 C   0  0  0  0  0  0  0  0  0  0  0  0
    3.3740   -3.5790   16.6990 C   0  0  0  0  0  0  0  0  0  0  0  0
    4.2550   -1.3410   16.1400 C   0  0  0  0  0  0  0  0  0  0  0  0
    5.3710   -0.3460   15.7490 C   0  0  1  0  0  0  0  0  0  0  0  0
    5.5630   -0.1120   14.2170 C   0  0  2  0  0  0  0  0  0  0  0  0
    3.5150    0.0220   12.7170 C   0  0  0  0  0  0  0  0  0  0  0  0
    2.2760    0.9100   12.4150 C   0  0  1  0  0  0  0  0  0  0  0  0
    2.5560    2.2840   12.7810 O   0  0  0  0  0  0  0  0  0  0  0  0
    6.8490    0.7210   13.9670 C   0  0  0  0  0  0  0  0  0  0  0  0
    2.8000    3.0950   11.7170 C   0  0  0  0  0  0  0  0  0  0  0  0
    3.0940    4.2720   11.7830 O   0  0  0  0  0  0  0  0  0  0  0  0
    2.3100    2.4560   10.6160 N   0  0  0  0  0  0  0  0  0  0  0  0
    1.8950    1.0670   10.9200 C   0  0  0  0  0  0  0  0  0  0  0  0
    2.2240    3.0730    9.3480 C   0  0  0  0  0  0  0  0  0  0  0  0
    3.3880    3.4220    8.6480 C   0  0  0  0  0  0  0  0  0  0  0  0
    3.3240    4.0550    7.3830 C   0  0  0  0  0  0  0  0  0  0  0  0
    2.0530    4.3910    6.8690 C   0  0  0  0  0  0  0  0  0  0  0  0
    0.8880    4.0940    7.5950 C   0  0  0  0  0  0  0  0  0  0  0  0
    0.9780    3.4270    8.8280 C   0  0  0  0  0  0  0  0  0  0  0  0
    4.5710    4.3810    6.5860 C   0  0  0  0  0  0  0  0  0  0  0  0
    4.5390    5.0920    5.5970 O   0  0  0  0  0  0  0  0  0  0  0  0
    5.8830    3.8030    7.0120 C   0  0  0  0  0  0  0  0  0  0  0  0
    5.4410   -6.8020   19.1880 H   0  0  0  0  0  0  0  0  0  0  0  0
    5.8090   -5.1730   18.6320 H   0  0  0  0  0  0  0  0  0  0  0  0
    6.2240   -5.6550   20.2770 H   0  0  0  0  0  0  0  0  0  0  0  0
    5.9120   -3.5280   17.3220 H   0  0  0  0  0  0  0  0  0  0  0  0
    4.1890    1.5280   13.8910 H   0  0  0  0  0  0  0  0  0  0  0  0
    5.1290    1.5390   15.5990 H   0  0  0  0  0  0  0  0  0  0  0  0
    6.4900    3.0530   12.6060 H   0  0  0  0  0  0  0  0  0  0  0  0
    7.2720   -8.4100   19.6590 H   0  0  0  0  0  0  0  0  0  0  0  0
    7.0640    3.5460   10.2330 H   0  0  0  0  0  0  0  0  0  0  0  0
    8.0380    1.7580    8.7940 H   0  0  0  0  0  0  0  0  0  0  0  0
    9.5020   -9.2670   18.9430 H   0  0  0  0  0  0  0  0  0  0  0  0
    8.4600   -0.5130    9.7440 H   0  0  0  0  0  0  0  0  0  0  0  0
   11.0290   -7.7990   17.6600 H   0  0  0  0  0  0  0  0  0  0  0  0
    7.8750   -0.9930   12.1250 H   0  0  0  0  0  0  0  0  0  0  0  0
    8.8570   -3.0850   16.2200 H   0  0  0  0  0  0  0  0  0  0  0  0
    4.3620   -3.0670   14.8110 H   0  0  0  0  0  0  0  0  0  0  0  0
    8.4520   -4.6850   15.5230 H   0  0  0  0  0  0  0  0  0  0  0  0
   11.7140   -5.6290   17.1020 H   0  0  0  0  0  0  0  0  0  0  0  0
   10.6660   -4.2330   17.2750 H   0  0  0  0  0  0  0  0  0  0  0  0
   10.5770   -5.2630   15.8120 H   0  0  0  0  0  0  0  0  0  0  0  0
    3.0540   -7.5110   14.1360 H   0  0  0  0  0  0  0  0  0  0  0  0
    2.9640   -8.9590   16.1600 H   0  0  0  0  0  0  0  0  0  0  0  0
    3.0580   -7.9290   18.4290 H   0  0  0  0  0  0  0  0  0  0  0  0
    3.2660   -5.4590   18.6590 H   0  0  0  0  0  0  0  0  0  0  0  0
    3.2120   -5.0350   14.3750 H   0  0  0  0  0  0  0  0  0  0  0  0
    2.3940   -3.1660   16.4470 H   0  0  0  0  0  0  0  0  0  0  0  0
    3.5130   -3.3490   17.7620 H   0  0  0  0  0  0  0  0  0  0  0  0
    4.1400   -1.2220   17.2210 H   0  0  0  0  0  0  0  0  0  0  0  0
    3.3110   -1.0170   15.6920 H   0  0  0  0  0  0  0  0  0  0  0  0
    6.3280   -0.6820   16.1860 H   0  0  0  0  0  0  0  0  0  0  0  0
    5.6880   -1.0920   13.7400 H   0  0  0  0  0  0  0  0  0  0  0  0
    1.4540    0.4880   13.0130 H   0  0  0  0  0  0  0  0  0  0  0  0
    6.8050    1.6680   14.5150 H   0  0  0  0  0  0  0  0  0  0  0  0
    7.7050    0.1990   14.4120 H   0  0  0  0  0  0  0  0  0  0  0  0
    0.8140    0.9340   10.7580 H   0  0  0  0  0  0  0  0  0  0  0  0
    2.4380    0.3320   10.3080 H   0  0  0  0  0  0  0  0  0  0  0  0
    4.3430    3.1550    9.0910 H   0  0  0  0  0  0  0  0  0  0  0  0
    1.9700    4.9050    5.9090 H   0  0  0  0  0  0  0  0  0  0  0  0
   -0.0860    4.3960    7.2100 H   0  0  0  0  0  0  0  0  0  0  0  0
    0.0780    3.2120    9.3970 H   0  0  0  0  0  0  0  0  0  0  0  0
    5.7680    2.7310    7.1950 H   0  0  0  0  0  0  0  0  0  0  0  0
    6.6200    3.9590    6.2170 H   0  0  0  0  0  0  0  0  0  0  0  0
    6.2160    4.3090    7.9210 H   0  0  0  0  0  0  0  0  0  0  0  0
  1  2  1  0  0  0  0
  1  3  2  0  0  0  0
  1 14  1  0  0  0  0
  2 21  1  0  0  0  0
  3  5  1  0  0  0  0
  3 16  1  0  0  0  0
  4 22  2  0  0  0  0
  5  7  2  0  0  0  0
  5 58  1  0  0  0  0
  6 22  1  0  0  0  0
  6 23  1  0  0  0  0
  6 54  1  0  0  0  0
  7 11  1  0  0  0  0
  7 61  1  0  0  0  0
  8 12  2  0  0  0  0
  8 20  1  0  0  0  0
  8 37  1  0  0  0  0
  9 33  1  0  0  0  0
  9 34  1  0  0  0  0
  9 55  1  0  0  0  0
 10 32  1  0  0  0  0
 10 56  1  0  0  0  0
 11 14  2  0  0  0  0
 11 63  1  0  0  0  0
 12 15  1  0  0  0  0
 12 57  1  0  0  0  0
 13 34  2  0  0  0  0
 14 18  1  0  0  0  0
 15 17  2  0  0  0  0
 15 59  1  0  0  0  0
 16 51  1  0  0  0  0
 16 52  1  0  0  0  0
 16 53  1  0  0  0  0
 17 19  1  0  0  0  0
 17 60  1  0  0  0  0
 18 68  1  0  0  0  0
 18 69  1  0  0  0  0
 18 70  1  0  0  0  0
 19 20  2  0  0  0  0
 19 62  1  0  0  0  0
 20 64  1  0  0  0  0
 21 22  1  0  0  0  0
 21 65  1  0  0  0  0
 21 67  1  0  0  0  0
 23 30  1  0  0  0  0
 23 31  1  0  0  0  0
 23 66  1  6  0  0  0
 24 25  2  0  0  0  0
 24 29  1  0  0  0  0
 24 71  1  0  0  0  0
 25 26  1  0  0  0  0
 25 72  1  0  0  0  0
 26 27  2  0  0  0  0
 26 73  1  0  0  0  0
 27 28  1  0  0  0  0
 27 74  1  0  0  0  0
 28 29  2  0  0  0  0
 28 30  1  0  0  0  0
 29 75  1  0  0  0  0
 30 76  1  0  0  0  0
 30 77  1  0  0  0  0
 31 32  1  0  0  0  0
 31 78  1  0  0  0  0
 31 79  1  0  0  0  0
 32 33  1  0  0  0  0
 32 80  1  1  0  0  0
 33 37  1  0  0  0  0
 33 81  1  6  0  0  0
 34 35  1  0  0  0  0
 35 36  1  0  0  0  0
 35 41  1  0  0  0  0
 35 82  1  6  0  0  0
 36 38  1  0  0  0  0
 37 83  1  0  0  0  0
 37 84  1  0  0  0  0
 38 39  2  0  0  0  0
 38 40  1  0  0  0  0
 40 41  1  0  0  0  0
 40 42  1  0  0  0  0
 41 85  1  0  0  0  0
 41 86  1  0  0  0  0
 42 43  2  0  0  0  0
 42 47  1  0  0  0  0
 43 44  1  0  0  0  0
 43 87  1  0  0  0  0
 44 45  2  0  0  0  0
 44 48  1  0  0  0  0
 45 46  1  0  0  0  0
 45 88  1  0  0  0  0
 46 47  2  0  0  0  0
 46 89  1  0  0  0  0
 47 90  1  0  0  0  0
 48 49  2  0  0  0  0
 48 50  1  0  0  0  0
 50 91  1  0  0  0  0
 50 92  1  0  0  0  0
 50 93  1  0  0  0  0
M  END
>  <charge>
0

>  <KI_NM>
35.11

>  <number_of_rotatable_bonds>
17

>  <lm5_entropy_jk>
43.769413455775634

>  <ligand_crystal_conformation>
A

$$$$
