3kxg
 OpenBabel11252210453D

 15 16  0  0  1  0  0  0  0  0999 V2000
   21.4410    8.3760   20.0370 C   0  0  0  0  0  0  0  0  0  0  0  0
   22.1600    7.2270   20.4210 C   0  0  0  0  0  0  0  0  0  0  0  0
   23.0720    6.6330   19.4780 C   0  0  0  0  0  0  0  0  0  0  0  0
   23.3190    7.2150   18.2190 C   0  0  0  0  0  0  0  0  0  0  0  0
   22.5980    8.3360   17.8670 C   0  0  0  0  0  0  0  0  0  0  0  0
   21.6410    8.9030   18.7690 C   0  0  0  0  0  0  0  0  0  0  0  0
   23.6260    5.5030   20.0800 N   0  0  0  0  0  0  0  0  0  0  0  0
   23.1290    5.3560   21.3470 N   0  0  0  0  0  0  0  0  0  0  0  0
   22.2680    6.3680   21.5700 C   0  0  0  0  0  0  0  0  0  0  0  0
   20.2330    9.1540   21.2760 Br  0  0  0  0  0  0  0  0  0  0  0  0
   20.6720   10.4340   18.2010 Br  0  0  0  0  0  0  0  0  0  0  0  0
   22.9160    9.1440   16.1820 Br  0  0  0  0  0  0  0  0  0  0  0  0
   24.6630    6.3700   17.2000 Br  0  0  0  0  0  0  0  0  0  0  0  0
   21.5130    6.3330   23.2410 Br  0  0  0  0  0  0  0  0  0  0  0  0
   24.2780    4.8230   19.6680 H   0  0  0  0  0  0  0  0  0  0  0  0
  1  2  2  0  0  0  0
  1  6  1  0  0  0  0
  1 10  1  0  0  0  0
  2  3  1  0  0  0  0
  2  9  1  0  0  0  0
  3  4  2  0  0  0  0
  3  7  1  0  0  0  0
  4  5  1  0  0  0  0
  4 13  1  0  0  0  0
  5  6  2  0  0  0  0
  5 12  1  0  0  0  0
  6 11  1  0  0  0  0
  7  8  1  0  0  0  0
  7 15  1  0  0  0  0
  8  9  2  0  0  0  0
  9 14  1  0  0  0  0
M  END
>  <charge>
0

>  <Ki_NM>
48

>  <number_of_rotatable_bonds>
0

>  <lm5_entropy_jk>
7.2278

$$$$
