1M2P
 OpenBabel11252210453D

 28 30  0  0  1  0  0  0  0  0999 V2000
   23.0170    4.6760   21.7250 N   0  3  0  0  0  0  0  0  0  0  0  0
   25.3580    3.7310   18.2920 C   0  0  0  0  0  0  0  0  0  0  0  0
   24.6160    4.9280   18.2640 C   0  0  0  0  0  0  0  0  0  0  0  0
   23.8350    5.2840   19.4010 C   0  0  0  0  0  0  0  0  0  0  0  0
   23.8010    4.3840   20.5050 C   0  0  0  0  0  0  0  0  0  0  0  0
   24.5130    3.1760   20.4830 C   0  0  0  0  0  0  0  0  0  0  0  0
   25.3070    2.8740   19.3790 C   0  0  0  0  0  0  0  0  0  0  0  0
   23.0520    6.5950   19.4130 C   0  0  0  0  0  0  0  0  0  0  0  0
   23.1180    7.4650   18.1810 C   0  0  0  0  0  0  0  0  0  0  0  0
   23.8590    7.0880   17.0330 C   0  0  0  0  0  0  0  0  0  0  0  0
   24.6640    5.8170   17.0490 C   0  0  0  0  0  0  0  0  0  0  0  0
   23.7980    7.9140   15.8880 C   0  0  0  0  0  0  0  0  0  0  0  0
   23.0370    9.0820   15.8940 C   0  0  0  0  0  0  0  0  0  0  0  0
   22.3380    9.4810   17.0380 C   0  0  0  0  0  0  0  0  0  0  0  0
   22.3720    8.6630   18.1670 C   0  0  0  0  0  0  0  0  0  0  0  0
   26.1720    3.3780   17.2800 O   0  0  0  0  0  0  0  0  0  0  0  0
   23.5670    5.4040   22.5460 O   0  5  0  0  0  0  0  0  0  0  0  0
   22.1560    3.8520   22.0270 O   0  0  0  0  0  0  0  0  0  0  0  0
   22.3630    6.9430   20.3620 O   0  0  0  0  0  0  0  0  0  0  0  0
   25.3380    5.4750   16.0930 O   0  0  0  0  0  0  0  0  0  0  0  0
   24.4320    7.6140   14.7270 O   0  0  0  0  0  0  0  0  0  0  0  0
   24.4600    2.4830   21.3260 H   0  0  0  0  0  0  0  0  0  0  0  0
   25.8860    1.9540   19.3530 H   0  0  0  0  0  0  0  0  0  0  0  0
   21.7590   10.4060   17.0500 H   0  0  0  0  0  0  0  0  0  0  0  0
   23.0030    9.7140   15.0100 H   0  0  0  0  0  0  0  0  0  0  0  0
   21.7950    8.9600   19.0430 H   0  0  0  0  0  0  0  0  0  0  0  0
   24.4820    8.4510   14.2280 H   0  0  0  0  0  0  0  0  0  0  0  0
   25.9450    4.0230   16.5730 H   0  0  0  0  0  0  0  0  0  0  0  0
  1 17  1  0  0  0  0
  1 18  2  0  0  0  0
  2  3  2  0  0  0  0
  2  7  1  0  0  0  0
  2 16  1  0  0  0  0
  3  4  1  0  0  0  0
  3 11  1  0  0  0  0
  4  5  2  0  0  0  0
  4  8  1  0  0  0  0
  5  1  1  0  0  0  0
  5  6  1  0  0  0  0
  6  7  2  0  0  0  0
  6 22  1  0  0  0  0
  7 23  1  0  0  0  0
  8  9  1  0  0  0  0
  8 19  2  0  0  0  0
  9 10  2  0  0  0  0
  9 15  1  0  0  0  0
 10 11  1  0  0  0  0
 10 12  1  0  0  0  0
 11 20  2  0  0  0  0
 12 13  2  0  0  0  0
 12 21  1  0  0  0  0
 13 14  1  0  0  0  0
 13 25  1  0  0  0  0
 14 15  2  0  0  0  0
 14 24  1  0  0  0  0
 15 26  1  0  0  0  0
 16 28  1  0  0  0  0
 21 27  1  0  0  0  0
M  CHG  2   1   1  17  -1
M  END
>  <Ki_NM>
780

>  <charge>
0

>  <number_of_rotatable_bonds>
1

>  <lm5_entropy_jk>
14.010740156892343

$$$$
