2Q5K_align_H.pdb
 OpenBabel11252210453D

 94 97  0  0  1  0  0  0  0  0999 V2000
    7.3590   -9.2340   18.3250 C   0  0  0  0  0  0  0  0  0  0  0  0
    7.2890   -6.4680   17.3580 N   0  0  0  0  0  0  0  0  0  0  0  0
    7.1990   -5.8350   19.5700 O   0  0  0  0  0  0  0  0  0  0  0  0
    7.3970   -7.6020   16.4050 C   0  0  0  0  0  0  0  0  0  0  0  0
    6.9570   -8.0730   19.1620 N   0  0  0  0  0  0  0  0  0  0  0  0
    6.3770   -4.7400   14.9200 O   0  0  0  0  0  0  0  0  0  0  0  0
    7.1880   -6.7460   18.7420 C   0  0  0  0  0  0  0  0  0  0  0  0
    5.7310   -3.5980   16.7890 N   0  0  0  0  0  0  0  0  0  0  0  0
    2.6260    1.3300   12.8050 O   0  0  0  0  0  0  0  0  0  0  0  0
    7.4280    0.5210   12.8250 C   0  0  0  0  0  0  0  0  0  0  0  0
    4.7470    0.0610   13.7630 N   0  0  0  0  0  0  0  0  0  0  0  0
    5.2170    0.6030   16.4970 O   0  0  0  0  0  0  0  0  0  0  0  0
    7.1460    1.8020   12.3240 C   0  0  0  0  0  0  0  0  0  0  0  0
    4.2800   -1.7580   12.4780 O   0  0  0  0  0  0  0  0  0  0  0  0
    7.3110    2.0780   10.9650 C   0  0  0  0  0  0  0  0  0  0  0  0
    7.7600    1.0810   10.0950 C   0  0  0  0  0  0  0  0  0  0  0  0
    8.0800   -0.1840   10.5980 C   0  0  0  0  0  0  0  0  0  0  0  0
    7.9170   -0.4680   11.9560 C   0  0  0  0  0  0  0  0  0  0  0  0
    7.6850   -5.0920   16.9750 C   0  0  2  0  0  0  0  0  0  0  0  0
    6.5410   -4.5120   16.1060 C   0  0  0  0  0  0  0  0  0  0  0  0
    4.4450   -3.1050   16.2310 C   0  0  1  0  0  0  0  0  0  0  0  0
    9.0760   -4.9640   16.2930 C   0  0  0  0  0  0  0  0  0  0  0  0
    9.2790   -3.5240   15.7990 C   0  0  0  0  0  0  0  0  0  0  0  0
   10.1750   -5.3580   17.2920 C   0  0  0  0  0  0  0  0  0  0  0  0
    2.3700   -7.1570   15.6520 C   0  0  0  0  0  0  0  0  0  0  0  0
    2.9840   -7.9960   16.5860 C   0  0  0  0  0  0  0  0  0  0  0  0
    3.6790   -7.4400   17.6640 C   0  0  0  0  0  0  0  0  0  0  0  0
    3.7640   -6.0530   17.8020 C   0  0  0  0  0  0  0  0  0  0  0  0
    3.1560   -5.2100   16.8580 C   0  0  0  0  0  0  0  0  0  0  0  0
    2.4520   -5.7700   15.7810 C   0  0  0  0  0  0  0  0  0  0  0  0
    3.2450   -3.7200   17.0080 C   0  0  0  0  0  0  0  0  0  0  0  0
    4.3400   -1.5730   16.3820 C   0  0  0  0  0  0  0  0  0  0  0  0
    5.5510   -0.7250   15.9960 C   0  0  1  0  0  0  0  0  0  0  0  0
    5.8620   -0.5970   14.4780 C   0  0  2  0  0  0  0  0  0  0  0  0
    4.0710   -0.5810   12.7430 C   0  0  0  0  0  0  0  0  0  0  0  0
    3.0760    0.2510   11.9360 C   0  0  0  0  0  0  0  0  0  0  0  0
    1.9190    2.3090   12.0870 C   0  0  0  0  0  0  0  0  0  0  0  0
    7.1730    0.2120   14.2730 C   0  0  0  0  0  0  0  0  0  0  0  0
    0.5210    2.1980   11.9990 C   0  0  0  0  0  0  0  0  0  0  0  0
   -0.1710    3.1880   11.2830 C   0  0  0  0  0  0  0  0  0  0  0  0
    0.5170    4.2420   10.6820 C   0  0  0  0  0  0  0  0  0  0  0  0
    1.9030    4.3540   10.8210 C   0  0  0  0  0  0  0  0  0  0  0  0
    2.6280    3.3980   11.5440 C   0  0  0  0  0  0  0  0  0  0  0  0
    4.0990    3.5280   11.7340 C   0  0  0  0  0  0  0  0  0  0  0  0
   -0.2110    1.0650   12.6340 C   0  0  0  0  0  0  0  0  0  0  0  0
    8.1150   -8.7940   17.0620 C   0  0  0  0  0  0  0  0  0  0  0  0
    6.4140   -9.7700   18.0300 H   0  0  0  0  0  0  0  0  0  0  0  0
    7.9950   -9.9340   18.9280 H   0  0  0  0  0  0  0  0  0  0  0  0
    7.9360   -7.2950   15.4780 H   0  0  0  0  0  0  0  0  0  0  0  0
    6.3460   -7.9080   16.1380 H   0  0  0  0  0  0  0  0  0  0  0  0
    7.0310   -8.2290   20.1890 H   0  0  0  0  0  0  0  0  0  0  0  0
    5.8020   -3.5100   17.8210 H   0  0  0  0  0  0  0  0  0  0  0  0
    4.5450    1.0320   14.0180 H   0  0  0  0  0  0  0  0  0  0  0  0
    6.0840    0.9290   16.9400 H   0  0  0  0  0  0  0  0  0  0  0  0
    6.7980    2.5910   12.9940 H   0  0  0  0  0  0  0  0  0  0  0  0
    7.0910    3.0790   10.5830 H   0  0  0  0  0  0  0  0  0  0  0  0
    7.8630    1.2980    9.0310 H   0  0  0  0  0  0  0  0  0  0  0  0
    8.4590   -0.9510    9.9240 H   0  0  0  0  0  0  0  0  0  0  0  0
    8.1810   -1.4520   12.3430 H   0  0  0  0  0  0  0  0  0  0  0  0
    7.7430   -4.4940   17.9290 H   0  0  0  0  0  0  0  0  0  0  0  0
    4.3870   -3.3950   15.1510 H   0  0  0  0  0  0  0  0  0  0  0  0
    9.1310   -5.6450   15.4090 H   0  0  0  0  0  0  0  0  0  0  0  0
   10.3400   -3.3860   15.4930 H   0  0  0  0  0  0  0  0  0  0  0  0
    8.6270   -3.3130   14.9230 H   0  0  0  0  0  0  0  0  0  0  0  0
    9.0490   -2.7910   16.6020 H   0  0  0  0  0  0  0  0  0  0  0  0
   11.1590   -5.3990   16.7760 H   0  0  0  0  0  0  0  0  0  0  0  0
   10.2480   -4.6110   18.1140 H   0  0  0  0  0  0  0  0  0  0  0  0
    9.9750   -6.3600   17.7250 H   0  0  0  0  0  0  0  0  0  0  0  0
    1.8280   -7.5840   14.8140 H   0  0  0  0  0  0  0  0  0  0  0  0
    2.9300   -9.0810   16.4770 H   0  0  0  0  0  0  0  0  0  0  0  0
    4.1640   -8.0920   18.3950 H   0  0  0  0  0  0  0  0  0  0  0  0
    4.3100   -5.6210   18.6440 H   0  0  0  0  0  0  0  0  0  0  0  0
    1.9590   -5.1250   15.0560 H   0  0  0  0  0  0  0  0  0  0  0  0
    2.3040   -3.2390   16.6500 H   0  0  0  0  0  0  0  0  0  0  0  0
    3.3450   -3.4600   18.0940 H   0  0  0  0  0  0  0  0  0  0  0  0
    4.1820   -1.3620   17.4730 H   0  0  0  0  0  0  0  0  0  0  0  0
    3.4380   -1.2280   15.8280 H   0  0  0  0  0  0  0  0  0  0  0  0
    6.4680   -1.0760   16.5330 H   0  0  0  0  0  0  0  0  0  0  0  0
    6.0170   -1.6340   14.0670 H   0  0  0  0  0  0  0  0  0  0  0  0
    3.5840    0.6810   11.0410 H   0  0  0  0  0  0  0  0  0  0  0  0
    2.1900   -0.3540   11.6380 H   0  0  0  0  0  0  0  0  0  0  0  0
    7.1140    1.1630   14.8630 H   0  0  0  0  0  0  0  0  0  0  0  0
    8.0220   -0.3700   14.7110 H   0  0  0  0  0  0  0  0  0  0  0  0
   -1.2530    3.1010   11.1750 H   0  0  0  0  0  0  0  0  0  0  0  0
   -0.0270    4.9760   10.0810 H   0  0  0  0  0  0  0  0  0  0  0  0
    2.4320    5.1740   10.3280 H   0  0  0  0  0  0  0  0  0  0  0  0
    4.3880    4.5770   11.9850 H   0  0  0  0  0  0  0  0  0  0  0  0
    4.4520    2.8680   12.5650 H   0  0  0  0  0  0  0  0  0  0  0  0
    4.6320    3.2430   10.7950 H   0  0  0  0  0  0  0  0  0  0  0  0
   -0.5510    0.3540   11.8460 H   0  0  0  0  0  0  0  0  0  0  0  0
    0.4380    0.5210   13.3610 H   0  0  0  0  0  0  0  0  0  0  0  0
   -1.1040    1.4570   13.1790 H   0  0  0  0  0  0  0  0  0  0  0  0
    8.1270   -9.6500   16.3490 H   0  0  0  0  0  0  0  0  0  0  0  0
    9.1680   -8.5310   17.3160 H   0  0  0  0  0  0  0  0  0  0  0  0
  1  5  1  0  0  0  0
  1 46  1  0  0  0  0
  1 47  1  0  0  0  0
  1 48  1  0  0  0  0
  2  4  1  0  0  0  0
  2  7  1  0  0  0  0
  2 19  1  0  0  0  0
  3  7  2  0  0  0  0
  4 46  1  0  0  0  0
  4 49  1  0  0  0  0
  4 50  1  0  0  0  0
  5  7  1  0  0  0  0
  5 51  1  0  0  0  0
  6 20  2  0  0  0  0
  8 20  1  0  0  0  0
  8 21  1  0  0  0  0
  8 52  1  0  0  0  0
  9 36  1  0  0  0  0
  9 37  1  0  0  0  0
 10 13  2  0  0  0  0
 10 18  1  0  0  0  0
 10 38  1  0  0  0  0
 11 34  1  0  0  0  0
 11 35  1  0  0  0  0
 11 53  1  0  0  0  0
 12 33  1  0  0  0  0
 12 54  1  0  0  0  0
 13 15  1  0  0  0  0
 13 55  1  0  0  0  0
 14 35  2  0  0  0  0
 15 16  2  0  0  0  0
 15 56  1  0  0  0  0
 16 17  1  0  0  0  0
 16 57  1  0  0  0  0
 17 18  2  0  0  0  0
 17 58  1  0  0  0  0
 18 59  1  0  0  0  0
 19 20  1  0  0  0  0
 19 22  1  0  0  0  0
 19 60  1  1  0  0  0
 21 31  1  0  0  0  0
 21 32  1  0  0  0  0
 21 61  1  6  0  0  0
 22 23  1  0  0  0  0
 22 24  1  0  0  0  0
 22 62  1  0  0  0  0
 23 63  1  0  0  0  0
 23 64  1  0  0  0  0
 23 65  1  0  0  0  0
 24 66  1  0  0  0  0
 24 67  1  0  0  0  0
 24 68  1  0  0  0  0
 25 26  2  0  0  0  0
 25 30  1  0  0  0  0
 25 69  1  0  0  0  0
 26 27  1  0  0  0  0
 26 70  1  0  0  0  0
 27 28  2  0  0  0  0
 27 71  1  0  0  0  0
 28 29  1  0  0  0  0
 28 72  1  0  0  0  0
 29 30  2  0  0  0  0
 29 31  1  0  0  0  0
 30 73  1  0  0  0  0
 31 74  1  0  0  0  0
 31 75  1  0  0  0  0
 32 33  1  0  0  0  0
 32 76  1  0  0  0  0
 32 77  1  0  0  0  0
 33 34  1  0  0  0  0
 33 78  1  1  0  0  0
 34 38  1  0  0  0  0
 34 79  1  6  0  0  0
 35 36  1  0  0  0  0
 36 80  1  0  0  0  0
 36 81  1  0  0  0  0
 37 39  2  0  0  0  0
 37 43  1  0  0  0  0
 38 82  1  0  0  0  0
 38 83  1  0  0  0  0
 39 40  1  0  0  0  0
 39 45  1  0  0  0  0
 40 41  2  0  0  0  0
 40 84  1  0  0  0  0
 41 42  1  0  0  0  0
 41 85  1  0  0  0  0
 42 43  2  0  0  0  0
 42 86  1  0  0  0  0
 43 44  1  0  0  0  0
 44 87  1  0  0  0  0
 44 88  1  0  0  0  0
 44 89  1  0  0  0  0
 45 90  1  0  0  0  0
 45 91  1  0  0  0  0
 45 92  1  0  0  0  0
 46 93  1  0  0  0  0
 46 94  1  0  0  0  0
M  END
>  <charge>
0

>  <KI_NM>
0.018

>  <number_of_rotatable_bonds>
17

>  <lm5_entropy_jk>
46.32548928686939

>  <ligand_crystal_conformation>
A

$$$$
