5mo2_new.pdb
 OpenBabel11252210453D

 23 23  0  0  0  0  0  0  0  0999 V2000
   -1.8590   14.5400   16.3530 N   0  0  0  0  0  0  0  0  0  0  0  0
   -1.6670   12.5200   15.0180 N   0  3  0  0  0  0  0  0  0  0  0  0
   -2.5760   14.4290   14.0250 N   0  0  0  0  0  0  0  0  0  0  0  0
   -1.1730   16.1180   18.7380 C   0  0  0  0  0  0  0  0  0  0  0  0
   -2.2680   16.5930   17.7860 C   0  0  0  0  0  0  0  0  0  0  0  0
   -2.1050   16.0250   16.3680 C   0  0  0  0  0  0  0  0  0  0  0  0
   -0.9070   13.9840   17.3790 C   0  0  0  0  0  0  0  0  0  0  0  0
   -1.1210   14.5910   18.7710 C   0  0  0  0  0  0  0  0  0  0  0  0
   -2.0640   13.8450   15.1790 C   0  0  0  0  0  0  0  0  0  0  0  0
   -1.3830   16.5010   19.7710 H   0  0  0  0  0  0  0  0  0  0  0  0
   -0.1860   16.5290   18.4180 H   0  0  0  0  0  0  0  0  0  0  0  0
   -3.2690   16.3180   18.1870 H   0  0  0  0  0  0  0  0  0  0  0  0
   -2.2300   17.7140   17.7000 H   0  0  0  0  0  0  0  0  0  0  0  0
   -3.0660   16.2360   15.8250 H   0  0  0  0  0  0  0  0  0  0  0  0
   -1.2510   16.5400   15.8500 H   0  0  0  0  0  0  0  0  0  0  0  0
    0.1370   14.1890   17.0300 H   0  0  0  0  0  0  0  0  0  0  0  0
   -1.0640   12.8760   17.4700 H   0  0  0  0  0  0  0  0  0  0  0  0
   -0.2690   14.2730   19.4300 H   0  0  0  0  0  0  0  0  0  0  0  0
   -2.0610   14.1860   19.2090 H   0  0  0  0  0  0  0  0  0  0  0  0
   -2.1620   11.9650   14.2740 H   0  0  0  0  0  0  0  0  0  0  0  0
   -1.3960   11.9500   15.8400 H   0  0  0  0  0  0  0  0  0  0  0  0
   -2.9680   15.3880   14.0320 H   0  0  0  0  0  0  0  0  0  0  0  0
   -3.0510   13.7670   13.3510 H   0  0  0  0  0  0  0  0  0  0  0  0
  1  6  1  0  0  0  0
  1  7  1  0  0  0  0
  1  9  1  0  0  0  0
  2  9  2  0  0  0  0
  2 20  1  0  0  0  0
  2 21  1  0  0  0  0
  3  9  1  0  0  0  0
  3 22  1  0  0  0  0
  3 23  1  0  0  0  0
  4  5  1  0  0  0  0
  4  8  1  0  0  0  0
  4 10  1  0  0  0  0
  4 11  1  0  0  0  0
  5  6  1  0  0  0  0
  5 12  1  0  0  0  0
  5 13  1  0  0  0  0
  6 14  1  0  0  0  0
  6 15  1  0  0  0  0
  7  8  1  0  0  0  0
  7 16  1  0  0  0  0
  7 17  1  0  0  0  0
  8 18  1  0  0  0  0
  8 19  1  0  0  0  0
M  CHG  1   2   1
M  END
>  <number_of_rotatable_bonds>
1

>  <lm5_entropy_jk>
13.765940156892343

>  <deltaG_kcalmol>
-5.25

>  <charge>
1

$$$$
