6RD0
 OpenBabel11252210453D

 40 42  0  0  0  0  0  0  0  0999 V2000
    7.8040   28.6570    4.9600 N   0  0  0  0  0  0  0  0  0  0  0  0
    7.6680   27.5760    3.9220 C   0  0  0  0  0  0  0  0  0  0  0  0
    6.3400   23.0780    5.2650 C   0  0  0  0  0  0  0  0  0  0  0  0
    7.4370   23.8870    4.5130 C   0  0  0  0  0  0  0  0  0  0  0  0
    8.0610   30.7620    6.8500 C   0  0  0  0  0  0  0  0  0  0  0  0
    8.6300   30.8750    5.5290 C   0  0  0  0  0  0  0  0  0  0  0  0
    8.4860   29.8300    4.6310 C   0  0  0  0  0  0  0  0  0  0  0  0
    7.1640   28.5010    6.1860 C   0  0  0  0  0  0  0  0  0  0  0  0
    7.3600   29.6160    7.1500 C   0  0  0  0  0  0  0  0  0  0  0  0
    8.2780   26.2480    4.3320 C   0  0  0  0  0  0  0  0  0  0  0  0
    9.4340   25.9670    4.0870 O   0  0  0  0  0  0  0  0  0  0  0  0
    7.4070   25.3300    4.8610 N   0  0  0  0  0  0  0  0  0  0  0  0
    6.4650   27.5310    6.4440 O   0  0  0  0  0  0  0  0  0  0  0  0
    6.7600   29.4130    8.3470 O   0  0  0  0  0  0  0  0  0  0  0  0
    4.9130   23.5340    5.0510 C   0  0  0  0  0  0  0  0  0  0  0  0
    3.7000   23.0500    5.6620 C   0  0  0  0  0  0  0  0  0  0  0  0
    2.6780   23.8000    5.1830 C   0  0  0  0  0  0  0  0  0  0  0  0
    4.5350   24.5580    4.1830 C   0  0  0  0  0  0  0  0  0  0  0  0
    3.1320   24.7020    4.2660 N   0  0  0  0  0  0  0  0  0  0  0  0
    3.4630   22.0150    6.5730 C   0  0  0  0  0  0  0  0  0  0  0  0
    2.1370   21.8170    7.0160 C   0  0  0  0  0  0  0  0  0  0  0  0
    1.0860   22.6400    6.5480 C   0  0  0  0  0  0  0  0  0  0  0  0
    1.3580   23.6500    5.6050 C   0  0  0  0  0  0  0  0  0  0  0  0
    6.6110   27.4000    3.6930 H   0  0  0  0  0  0  0  0  0  0  0  0
    8.1620   27.8420    2.9820 H   0  0  0  0  0  0  0  0  0  0  0  0
    6.5500   23.0730    6.3410 H   0  0  0  0  0  0  0  0  0  0  0  0
    6.4100   22.0270    4.9520 H   0  0  0  0  0  0  0  0  0  0  0  0
    8.4360   23.4730    4.7230 H   0  0  0  0  0  0  0  0  0  0  0  0
    7.3000   23.7640    3.4270 H   0  0  0  0  0  0  0  0  0  0  0  0
    8.1610   31.5620    7.5820 H   0  0  0  0  0  0  0  0  0  0  0  0
    9.1610   31.7810    5.2390 H   0  0  0  0  0  0  0  0  0  0  0  0
    8.8640   29.8570    3.6120 H   0  0  0  0  0  0  0  0  0  0  0  0
    6.5760   25.7220    5.3000 H   0  0  0  0  0  0  0  0  0  0  0  0
    6.3580   28.5210    8.2530 H   0  0  0  0  0  0  0  0  0  0  0  0
    5.1350   25.1610    3.5140 H   0  0  0  0  0  0  0  0  0  0  0  0
    2.5210   25.2570    3.6730 H   0  0  0  0  0  0  0  0  0  0  0  0
    4.2720   21.3880    6.9260 H   0  0  0  0  0  0  0  0  0  0  0  0
    1.9160   21.0190    7.7160 H   0  0  0  0  0  0  0  0  0  0  0  0
    0.0670   22.4770    6.8980 H   0  0  0  0  0  0  0  0  0  0  0  0
    0.5710   24.2810    5.2010 H   0  0  0  0  0  0  0  0  0  0  0  0
  1  2  1  0  0  0  0
  1  7  1  0  0  0  0
  1  8  1  0  0  0  0
  2 10  1  0  0  0  0
  2 24  1  0  0  0  0
  2 25  1  0  0  0  0
  3  4  1  0  0  0  0
  3 15  1  0  0  0  0
  3 26  1  0  0  0  0
  3 27  1  0  0  0  0
  4 12  1  0  0  0  0
  4 28  1  0  0  0  0
  4 29  1  0  0  0  0
  5  6  1  0  0  0  0
  5  9  2  0  0  0  0
  5 30  1  0  0  0  0
  6  7  2  0  0  0  0
  6 31  1  0  0  0  0
  7 32  1  0  0  0  0
  8 13  2  0  0  0  0
  8  9  1  0  0  0  0
  9 14  1  0  0  0  0
 10 12  1  0  0  0  0
 10 11  2  0  0  0  0
 12 33  1  0  0  0  0
 14 34  1  0  0  0  0
 15 18  2  0  0  0  0
 15 16  1  0  0  0  0
 16 17  2  0  0  0  0
 16 20  1  0  0  0  0
 17 19  1  0  0  0  0
 17 23  1  0  0  0  0
 18 19  1  0  0  0  0
 18 35  1  0  0  0  0
 19 36  1  0  0  0  0
 20 21  2  0  0  0  0
 20 37  1  0  0  0  0
 21 22  1  0  0  0  0
 21 38  1  0  0  0  0
 22 23  2  0  0  0  0
 22 39  1  0  0  0  0
 23 40  1  0  0  0  0
M  END
>  <COMPND>
6rd0.pdb

>  <AUTHOR>
GENERATED BY OPEN BABEL 2.3.1

>  <MASTER>
0    0    0    0    0    0    0    0   40    0   40    0

>  <lm5_entropy_jk>
24.137609081580525

>  <number_of_rotatable_bonds>
6

>  <deltaG_kcalmol>
-6.49

>  <charge>
0

$$$$
