6RD0
 OpenBabel11252210453D

 40 42  0  0  0  0  0  0  0  0999 V2000
    7.9260   28.8900    5.0340 N   0  0  0  0  0  0  0  0  0  0  0  0
    7.6810   27.7620    4.0690 C   0  0  0  0  0  0  0  0  0  0  0  0
    6.3620   23.4230    5.8350 C   0  0  0  0  0  0  0  0  0  0  0  0
    7.4240   24.1140    4.9390 C   0  0  0  0  0  0  0  0  0  0  0  0
    8.3840   31.0930    6.7680 C   0  0  0  0  0  0  0  0  0  0  0  0
    8.8400   31.1150    5.4000 C   0  0  0  0  0  0  0  0  0  0  0  0
    8.6060   30.0230    4.5830 C   0  0  0  0  0  0  0  0  0  0  0  0
    7.3940   28.8180    6.3200 C   0  0  0  0  0  0  0  0  0  0  0  0
    7.7010   29.9790    7.1980 C   0  0  0  0  0  0  0  0  0  0  0  0
    8.2810   26.4390    4.5030 C   0  0  0  0  0  0  0  0  0  0  0  0
    9.4100   26.1070    4.1990 O   0  0  0  0  0  0  0  0  0  0  0  0
    7.4170   25.5820    5.1360 N   0  0  0  0  0  0  0  0  0  0  0  0
    6.6870   27.8900    6.6910 O   0  0  0  0  0  0  0  0  0  0  0  0
    7.2080   29.8590    8.4530 O   0  0  0  0  0  0  0  0  0  0  0  0
    4.9230   23.8060    5.5700 C   0  0  0  0  0  0  0  0  0  0  0  0
    3.7370   23.4440    6.3040 C   0  0  0  0  0  0  0  0  0  0  0  0
    2.6890   24.0800    5.7200 C   0  0  0  0  0  0  0  0  0  0  0  0
    4.5060   24.6350    4.5270 C   0  0  0  0  0  0  0  0  0  0  0  0
    3.1030   24.7870    4.6230 N   0  0  0  0  0  0  0  0  0  0  0  0
    3.5580   22.6350    7.4340 C   0  0  0  0  0  0  0  0  0  0  0  0
    2.2610   22.5630    7.9910 C   0  0  0  0  0  0  0  0  0  0  0  0
    1.1800   23.2590    7.3980 C   0  0  0  0  0  0  0  0  0  0  0  0
    1.3920   24.0230    6.2310 C   0  0  0  0  0  0  0  0  0  0  0  0
    6.6070   27.6060    3.9250 H   0  0  0  0  0  0  0  0  0  0  0  0
    8.1100   27.9630    3.0810 H   0  0  0  0  0  0  0  0  0  0  0  0
    6.5990   23.6160    6.8870 H   0  0  0  0  0  0  0  0  0  0  0  0
    6.4450   22.3360    5.7060 H   0  0  0  0  0  0  0  0  0  0  0  0
    8.4290   23.7180    5.1520 H   0  0  0  0  0  0  0  0  0  0  0  0
    7.2330   23.8750    3.8790 H   0  0  0  0  0  0  0  0  0  0  0  0
    8.5520   31.9360    7.4360 H   0  0  0  0  0  0  0  0  0  0  0  0
    9.3590   31.9920    5.0100 H   0  0  0  0  0  0  0  0  0  0  0  0
    8.9040   29.9790    3.5380 H   0  0  0  0  0  0  0  0  0  0  0  0
    6.6100   26.0200    5.5730 H   0  0  0  0  0  0  0  0  0  0  0  0
    6.7820   28.9740    8.4480 H   0  0  0  0  0  0  0  0  0  0  0  0
    5.0850   25.1060    3.7410 H   0  0  0  0  0  0  0  0  0  0  0  0
    2.4840   25.2520    3.9610 H   0  0  0  0  0  0  0  0  0  0  0  0
    4.3930   22.0940    7.8720 H   0  0  0  0  0  0  0  0  0  0  0  0
    2.0880   21.9680    8.8860 H   0  0  0  0  0  0  0  0  0  0  0  0
    0.1830   23.1960    7.8370 H   0  0  0  0  0  0  0  0  0  0  0  0
    0.5800   24.5630    5.7490 H   0  0  0  0  0  0  0  0  0  0  0  0
  1  2  1  0  0  0  0
  1  7  1  0  0  0  0
  1  8  1  0  0  0  0
  2 10  1  0  0  0  0
  2 24  1  0  0  0  0
  2 25  1  0  0  0  0
  3  4  1  0  0  0  0
  3 15  1  0  0  0  0
  3 26  1  0  0  0  0
  3 27  1  0  0  0  0
  4 12  1  0  0  0  0
  4 28  1  0  0  0  0
  4 29  1  0  0  0  0
  5  6  1  0  0  0  0
  5  9  2  0  0  0  0
  5 30  1  0  0  0  0
  6  7  2  0  0  0  0
  6 31  1  0  0  0  0
  7 32  1  0  0  0  0
  8 13  2  0  0  0  0
  8  9  1  0  0  0  0
  9 14  1  0  0  0  0
 10 12  1  0  0  0  0
 10 11  2  0  0  0  0
 12 33  1  0  0  0  0
 14 34  1  0  0  0  0
 15 18  2  0  0  0  0
 15 16  1  0  0  0  0
 16 17  2  0  0  0  0
 16 20  1  0  0  0  0
 17 19  1  0  0  0  0
 17 23  1  0  0  0  0
 18 19  1  0  0  0  0
 18 35  1  0  0  0  0
 19 36  1  0  0  0  0
 20 21  2  0  0  0  0
 20 37  1  0  0  0  0
 21 22  1  0  0  0  0
 21 38  1  0  0  0  0
 22 23  2  0  0  0  0
 22 39  1  0  0  0  0
 23 40  1  0  0  0  0
M  END
>  <COMPND>
6rd0.pdb

>  <AUTHOR>
GENERATED BY OPEN BABEL 2.3.1

>  <MASTER>
0    0    0    0    0    0    0    0   40    0   40    0

>  <lm5_entropy_jk>
24.137609081580525

>  <number_of_rotatable_bonds>
6

>  <deltaG_kcalmol>
-6.49

>  <charge>
0

$$$$
