3NX7
 OpenBabel11252210453D

 36 36  0  0  0  0  0  0  0  0999 V2000
    5.6380   25.5840    4.5310 C   0  0  0  0  0  0  0  0  0  0  0  0
    8.5860   23.8560    1.3600 N   0  0  0  0  0  0  0  0  0  0  0  0
    6.9260   24.8340    0.1460 O   0  0  0  0  0  0  0  0  0  0  0  0
    8.0580   26.5790    3.8630 S   0  0  0  0  0  0  0  0  0  0  0  0
    4.7820   24.5730    4.9630 C   0  0  0  0  0  0  0  0  0  0  0  0
    7.7890   26.9310    2.1980 N   0  0  0  0  0  0  0  0  0  0  0  0
    8.0680   22.6680    0.8020 O   0  0  0  0  0  0  0  0  0  0  0  0
    6.9790   25.3120    4.2160 C   0  0  0  0  0  0  0  0  0  0  0  0
    7.6910   27.7980    4.5900 O   0  0  0  0  0  0  0  0  0  0  0  0
    5.2770   23.2610    5.0520 C   0  0  0  0  0  0  0  0  0  0  0  0
    9.4480   26.1740    4.0620 O   0  0  0  0  0  0  0  0  0  0  0  0
    7.4260   23.9730    4.2110 C   0  0  0  0  0  0  0  0  0  0  0  0
    4.6240   22.1860    5.5750 O   0  0  0  0  0  0  0  0  0  0  0  0
    8.2880   29.4110    1.8290 C   0  0  0  0  0  0  0  0  0  0  0  0
    8.3790   30.0800    3.0900 O   0  0  0  0  0  0  0  0  0  0  0  0
    6.5810   22.9480    4.6020 C   0  0  0  0  0  0  0  0  0  0  0  0
    7.2510   28.2660    1.8280 C   0  0  0  0  0  0  0  0  0  0  0  0
    7.9620   24.9950    0.7650 C   0  0  0  0  0  0  0  0  0  0  0  0
    8.6540   26.3010    1.1810 C   0  0  0  0  0  0  0  0  0  0  0  0
    3.2490   22.3320    6.0240 C   0  0  0  0  0  0  0  0  0  0  0  0
    5.2400   26.6030    4.4440 H   0  0  0  0  0  0  0  0  0  0  0  0
    9.6280   23.7820    1.4240 H   0  0  0  0  0  0  0  0  0  0  0  0
    3.7460   24.8070    5.2090 H   0  0  0  0  0  0  0  0  0  0  0  0
    8.3130   21.9320    1.5660 H   0  0  0  0  0  0  0  0  0  0  0  0
    8.4470   23.7220    3.8900 H   0  0  0  0  0  0  0  0  0  0  0  0
    9.2930   29.0250    1.5430 H   0  0  0  0  0  0  0  0  0  0  0  0
    7.9670   30.2170    1.1240 H   0  0  0  0  0  0  0  0  0  0  0  0
    8.3610   29.3940    3.8240 H   0  0  0  0  0  0  0  0  0  0  0  0
    6.9070   21.9070    4.5390 H   0  0  0  0  0  0  0  0  0  0  0  0
    6.8010   28.1950    0.7990 H   0  0  0  0  0  0  0  0  0  0  0  0
    6.4250   28.5210    2.5440 H   0  0  0  0  0  0  0  0  0  0  0  0
    8.7690   26.9480    0.2620 H   0  0  0  0  0  0  0  0  0  0  0  0
    9.6990   26.1140    1.5660 H   0  0  0  0  0  0  0  0  0  0  0  0
    3.0230   21.2850    6.3450 H   0  0  0  0  0  0  0  0  0  0  0  0
    2.6020   22.6460    5.1780 H   0  0  0  0  0  0  0  0  0  0  0  0
    3.2010   23.0390    6.8770 H   0  0  0  0  0  0  0  0  0  0  0  0
  1  8  2  0  0  0  0
  1  5  1  0  0  0  0
  1 21  1  0  0  0  0
  2  7  1  0  0  0  0
  2 18  1  0  0  0  0
  2 22  1  0  0  0  0
  3 18  2  0  0  0  0
  4  6  1  0  0  0  0
  4 11  2  0  0  0  0
  4  8  1  0  0  0  0
  4  9  2  0  0  0  0
  5 10  2  0  0  0  0
  5 23  1  0  0  0  0
  6 19  1  0  0  0  0
  6 17  1  0  0  0  0
  7 24  1  0  0  0  0
  8 12  1  0  0  0  0
 10 16  1  0  0  0  0
 10 13  1  0  0  0  0
 12 16  2  0  0  0  0
 12 25  1  0  0  0  0
 13 20  1  0  0  0  0
 14 15  1  0  0  0  0
 14 17  1  0  0  0  0
 14 26  1  0  0  0  0
 14 27  1  0  0  0  0
 15 28  1  0  0  0  0
 16 29  1  0  0  0  0
 17 30  1  0  0  0  0
 17 31  1  0  0  0  0
 18 19  1  0  0  0  0
 19 32  1  0  0  0  0
 19 33  1  0  0  0  0
 20 34  1  0  0  0  0
 20 35  1  0  0  0  0
 20 36  1  0  0  0  0
M  END
>  <lm5_entropy_jk>
31.710712665173276

>  <number_of_rotatable_bonds>
8

>  <deltaG_kcalmol>
-11.09

>  <charge>
0

$$$$
