3qtx.pdb
 OpenBabel11252210453D

 41 43  0  0  1  0  0  0  0  0999 V2000
   66.0420  154.2920  -50.4190 N   0  0  0  0  0  0  0  0  0  0  0  0
   67.6330  153.4390  -51.9930 N   0  0  0  0  0  0  0  0  0  0  0  0
   64.5780  154.7320  -48.6080 N   0  0  0  0  0  0  0  0  0  0  0  0
   71.1880  149.2870  -46.0760 N   0  3  0  0  0  0  0  0  0  0  0  0
   62.0460  152.7970  -42.6600 N   0  0  0  0  0  0  0  0  0  0  0  0
   67.1600  153.4580  -50.7220 C   0  0  0  0  0  0  0  0  0  0  0  0
   67.6490  152.6490  -49.6750 C   0  0  0  0  0  0  0  0  0  0  0  0
   68.6570  151.6320  -49.7200 C   0  0  0  0  0  0  0  0  0  0  0  0
   68.7050  150.6960  -48.5370 C   0  0  0  0  0  0  0  0  0  0  0  0
   69.9110  150.4540  -47.8720 C   0  0  0  0  0  0  0  0  0  0  0  0
   69.9280  149.5580  -46.7900 C   0  0  0  0  0  0  0  0  0  0  0  0
   68.7560  148.9240  -46.3480 C   0  0  0  0  0  0  0  0  0  0  0  0
   67.5630  149.1860  -47.0130 C   0  0  0  0  0  0  0  0  0  0  0  0
   67.5350  150.0450  -48.1160 C   0  0  0  0  0  0  0  0  0  0  0  0
   65.6600  154.0640  -49.1430 C   0  0  0  0  0  0  0  0  0  0  0  0
   63.8840  154.4520  -47.3920 C   0  0  0  0  0  0  0  0  0  0  0  0
   62.9430  155.4300  -46.9950 C   0  0  0  0  0  0  0  0  0  0  0  0
   62.1830  155.2390  -45.8480 C   0  0  0  0  0  0  0  0  0  0  0  0
   62.3440  154.0790  -45.0750 C   0  0  0  0  0  0  0  0  0  0  0  0
   63.3020  153.1330  -45.4520 C   0  0  0  0  0  0  0  0  0  0  0  0
   64.0600  153.2990  -46.6160 C   0  0  0  0  0  0  0  0  0  0  0  0
   69.4320  151.4850  -50.6540 O   0  0  0  0  0  0  0  0  0  0  0  0
   72.1790  149.9210  -46.4050 O   0  0  0  0  0  0  0  0  0  0  0  0
   71.1830  148.4680  -45.1700 O   0  5  0  0  0  0  0  0  0  0  0  0
   60.1100  153.0670  -44.3960 O   0  0  0  0  0  0  0  0  0  0  0  0
   60.8940  155.0010  -43.0540 O   0  0  0  0  0  0  0  0  0  0  0  0
   66.7290  152.8940  -48.2300 S   0  0  0  0  0  0  0  0  0  0  0  0
   61.2400  153.7740  -43.7880 S   0  0  0  0  0  0  0  0  0  0  0  0
   67.2350  154.0640  -52.7230 H   0  0  0  0  0  0  0  0  0  0  0  0
   68.4620  152.8780  -52.2150 H   0  0  0  0  0  0  0  0  0  0  0  0
   70.8290  150.9650  -48.1860 H   0  0  0  0  0  0  0  0  0  0  0  0
   68.7680  148.2350  -45.4940 H   0  0  0  0  0  0  0  0  0  0  0  0
   66.6370  148.7330  -46.6560 H   0  0  0  0  0  0  0  0  0  0  0  0
   66.5870  150.1880  -48.6350 H   0  0  0  0  0  0  0  0  0  0  0  0
   64.0190  155.3300  -49.2710 H   0  0  0  0  0  0  0  0  0  0  0  0
   62.7910  156.3260  -47.6000 H   0  0  0  0  0  0  0  0  0  0  0  0
   61.4540  156.0140  -45.5740 H   0  0  0  0  0  0  0  0  0  0  0  0
   63.4890  152.2360  -44.8520 H   0  0  0  0  0  0  0  0  0  0  0  0
   64.7470  152.4970  -46.8870 H   0  0  0  0  0  0  0  0  0  0  0  0
   62.1630  151.7790  -42.9290 H   0  0  0  0  0  0  0  0  0  0  0  0
   61.8720  152.9000  -41.6510 H   0  0  0  0  0  0  0  0  0  0  0  0
  1  6  1  0  0  0  0
  1 15  2  0  0  0  0
  2  6  1  0  0  0  0
  2 29  1  0  0  0  0
  2 30  1  0  0  0  0
  3 15  1  0  0  0  0
  3 16  1  0  0  0  0
  3 35  1  0  0  0  0
  4 11  1  0  0  0  0
  4 23  2  0  0  0  0
  4 24  1  0  0  0  0
  5 28  1  0  0  0  0
  5 40  1  0  0  0  0
  5 41  1  0  0  0  0
  6  7  2  0  0  0  0
  7 27  1  0  0  0  0
  8  7  1  0  0  0  0
  8  9  1  0  0  0  0
  8 22  2  0  0  0  0
  9 10  2  0  0  0  0
  9 14  1  0  0  0  0
 10 11  1  0  0  0  0
 10 31  1  0  0  0  0
 11 12  2  0  0  0  0
 12 13  1  0  0  0  0
 12 32  1  0  0  0  0
 13 14  2  0  0  0  0
 13 33  1  0  0  0  0
 14 34  1  0  0  0  0
 15 27  1  0  0  0  0
 16 17  2  0  0  0  0
 16 21  1  0  0  0  0
 17 18  1  0  0  0  0
 17 36  1  0  0  0  0
 18 19  2  0  0  0  0
 18 37  1  0  0  0  0
 19 20  1  0  0  0  0
 19 28  1  0  0  0  0
 20 21  2  0  0  0  0
 20 38  1  0  0  0  0
 21 39  1  0  0  0  0
 25 28  2  0  0  0  0
 26 28  2  0  0  0  0
M  CHG  2   4   1  24  -1
M  END
>  <lm5_entropy_jk>
24.48849005177307

>  <number_of_rotatable_bonds>
6

>  <IC50_NM>
70

>  <charge>
0

$$$$
