2IKG
 OpenBabel11252210453D

 30 31  0  0  0  0  0  0  0  0999 V2000
   17.8630   -3.1280   10.2760 N   0  3  0  0  0  0  0  0  0  0  0  0
   19.0570   -3.4100   10.3850 O   0  5  0  0  0  0  0  0  0  0  0  0
   14.6480   -4.9330   11.0500 C   0  0  0  0  0  0  0  0  0  0  0  0
   15.9870   -7.2290   14.5150 N   0  0  0  0  0  0  0  0  0  0  0  0
   17.4210   -2.1780    9.6440 O   0  0  0  0  0  0  0  0  0  0  0  0
   15.5590   -4.0820   10.4150 C   0  0  0  0  0  0  0  0  0  0  0  0
   18.0820   -6.3980   14.2440 N   0  0  0  0  0  0  0  0  0  0  0  0
   16.8970   -4.0690   10.8520 C   0  0  0  0  0  0  0  0  0  0  0  0
   17.3120   -4.8860   11.9170 C   0  0  0  0  0  0  0  0  0  0  0  0
   16.3990   -5.7190   12.5760 C   0  0  0  0  0  0  0  0  0  0  0  0
   15.0650   -5.7410   12.1220 C   0  0  0  0  0  0  0  0  0  0  0  0
   16.8440   -6.4600   13.7690 C   0  0  0  0  0  0  0  0  0  0  0  0
   16.7720   -7.6220   15.4850 C   0  0  0  0  0  0  0  0  0  0  0  0
   16.3730   -8.5160   16.6170 C   0  0  0  0  0  0  0  0  0  0  0  0
   15.6020   -7.7820   17.7500 C   0  0  0  0  0  0  0  0  0  0  0  0
   16.5160   -6.7320   18.4530 C   0  0  0  0  0  0  0  0  0  0  0  0
   15.8610   -6.0240   19.5980 C   0  0  0  0  0  0  0  0  0  0  0  0
   16.3440   -6.1150   20.6990 O   0  0  0  0  0  0  0  0  0  0  0  0
   14.8380   -5.4220   19.3680 O   0  5  0  0  0  0  0  0  0  0  0  0
   18.0460   -7.1790   15.4020 O   0  0  0  0  0  0  0  0  0  0  0  0
   16.8270   -5.9440   17.7660 H   0  0  0  0  0  0  0  0  0  0  0  0
   13.6030   -4.9350   10.7460 H   0  0  0  0  0  0  0  0  0  0  0  0
   15.2180   -3.4240    9.6130 H   0  0  0  0  0  0  0  0  0  0  0  0
   18.3370   -4.8200   12.2770 H   0  0  0  0  0  0  0  0  0  0  0  0
   14.3270   -6.3450   12.6240 H   0  0  0  0  0  0  0  0  0  0  0  0
   17.2740   -8.9880   17.0260 H   0  0  0  0  0  0  0  0  0  0  0  0
   15.2420   -8.5050   18.4970 H   0  0  0  0  0  0  0  0  0  0  0  0
   17.4220   -7.1790   18.8610 H   0  0  0  0  0  0  0  0  0  0  0  0
   15.7700   -9.3370   16.2170 H   0  0  0  0  0  0  0  0  0  0  0  0
   14.7010   -7.2880   17.3500 H   0  0  0  0  0  0  0  0  0  0  0  0
  1  2  1  0  0  0  0
  1  5  2  0  0  0  0
  1  8  1  0  0  0  0
  3  6  2  0  0  0  0
  3 11  1  0  0  0  0
  3 22  1  0  0  0  0
  4 12  1  0  0  0  0
  4 13  2  0  0  0  0
  6  8  1  0  0  0  0
  6 23  1  0  0  0  0
  7 12  2  0  0  0  0
  7 20  1  0  0  0  0
  8  9  2  0  0  0  0
  9 10  1  0  0  0  0
  9 24  1  0  0  0  0
 10 11  2  0  0  0  0
 10 12  1  0  0  0  0
 11 25  1  0  0  0  0
 13 14  1  0  0  0  0
 13 20  1  0  0  0  0
 14 15  1  0  0  0  0
 14 26  1  0  0  0  0
 14 29  1  0  0  0  0
 15 16  1  0  0  0  0
 15 27  1  0  0  0  0
 15 30  1  0  0  0  0
 16 17  1  0  0  0  0
 16 21  1  0  0  0  0
 16 28  1  0  0  0  0
 17 18  2  0  0  0  0
 17 19  1  0  0  0  0
M  CHG  3   1   1   2  -1  19  -1
M  END
>  <lm5_entropy_jk>
21.679325925993282

>  <number_of_rotatable_bonds>
6

>  <deltaG_kcalmol>
-8.46

>  <charge>
-1

$$$$
