3ehx.pdb
 OpenBabel11252210453D

 45 46  0  0  1  0  0  0  0  0999 V2000
    4.6440   24.3040    4.9090 C   0  0  0  0  0  0  0  0  0  0  0  0
    8.2590   26.2730    1.7670 N   0  0  0  0  0  0  0  0  0  0  0  0
    9.5170   26.1150    4.0400 O   0  0  0  0  0  0  0  0  0  0  0  0
    8.2790   26.6250    3.4560 S   0  0  0  0  0  0  0  0  0  0  0  0
    3.4780   23.6080    5.5010 C   0  0  0  0  0  0  0  0  0  0  0  0
    8.0690   28.0640    3.5620 O   0  0  0  0  0  0  0  0  0  0  0  0
    5.9070   23.6830    4.8130 C   0  0  0  0  0  0  0  0  0  0  0  0
    6.7940   24.4510    0.0670 O   0  0  0  0  0  0  0  0  0  0  0  0
    4.5330   25.6320    4.4570 C   0  0  0  0  0  0  0  0  0  0  0  0
    7.4910   22.9810    1.4390 O   0  0  0  0  0  0  0  0  0  0  0  0
    7.0260   24.3890    4.3700 C   0  0  0  0  0  0  0  0  0  0  0  0
    5.6510   26.3420    4.0190 C   0  0  0  0  0  0  0  0  0  0  0  0
    6.9110   25.7340    3.9940 C   0  0  0  0  0  0  0  0  0  0  0  0
    3.6470   22.4330    6.2570 C   0  0  0  0  0  0  0  0  0  0  0  0
    2.1740   24.1190    5.3570 C   0  0  0  0  0  0  0  0  0  0  0  0
    2.5550   21.7970    6.8510 C   0  0  0  0  0  0  0  0  0  0  0  0
    1.2710   22.3350    6.7260 C   0  0  0  0  0  0  0  0  0  0  0  0
    1.0860   23.4980    5.9750 C   0  0  0  0  0  0  0  0  0  0  0  0
    9.8140   27.5460   -1.1260 C   0  0  0  0  0  0  0  0  0  0  0  0
   10.5290   26.6140   -0.1350 C   0  0  0  0  0  0  0  0  0  0  0  0
    7.7090   24.1870    0.8250 C   0  0  0  0  0  0  0  0  0  0  0  0
    9.8140   25.2470   -0.0090 C   0  0  0  0  0  0  0  0  0  0  0  0
    8.9050   25.0640    1.2290 C   0  0  1  0  0  0  0  0  0  0  0  0
   11.9860   26.4140   -0.5850 C   0  0  0  0  0  0  0  0  0  0  0  0
    8.2260   27.0620    1.0990 H   0  0  0  0  0  0  0  0  0  0  0  0
    6.0340   22.6310    5.0720 H   0  0  0  0  0  0  0  0  0  0  0  0
    3.5620   26.1300    4.4390 H   0  0  0  0  0  0  0  0  0  0  0  0
    7.9910   23.8690    4.3230 H   0  0  0  0  0  0  0  0  0  0  0  0
    5.5230   27.3830    3.7000 H   0  0  0  0  0  0  0  0  0  0  0  0
    4.6380   22.0030    6.4040 H   0  0  0  0  0  0  0  0  0  0  0  0
    1.9730   25.0080    4.7580 H   0  0  0  0  0  0  0  0  0  0  0  0
    2.7020   20.8720    7.4080 H   0  0  0  0  0  0  0  0  0  0  0  0
    0.4190   21.8520    7.2040 H   0  0  0  0  0  0  0  0  0  0  0  0
    0.0830   23.9160    5.8530 H   0  0  0  0  0  0  0  0  0  0  0  0
   10.2780   28.5580   -1.0870 H   0  0  0  0  0  0  0  0  0  0  0  0
    8.7320   27.6440   -0.9040 H   0  0  0  0  0  0  0  0  0  0  0  0
    9.9240   27.1570   -2.1650 H   0  0  0  0  0  0  0  0  0  0  0  0
   10.5410   27.0930    0.8730 H   0  0  0  0  0  0  0  0  0  0  0  0
   10.5990   24.4540    0.0660 H   0  0  0  0  0  0  0  0  0  0  0  0
    9.2520   25.0730   -0.9570 H   0  0  0  0  0  0  0  0  0  0  0  0
    9.4980   24.5490    2.0380 H   0  0  0  0  0  0  0  0  0  0  0  0
   12.0270   25.8830   -1.5620 H   0  0  0  0  0  0  0  0  0  0  0  0
   12.5450   25.8240    0.1690 H   0  0  0  0  0  0  0  0  0  0  0  0
   12.4900   27.3990   -0.7060 H   0  0  0  0  0  0  0  0  0  0  0  0
    8.3030   22.4780    1.9030 H   0  0  0  0  0  0  0  0  0  0  0  0
  1  5  1  0  0  0  0
  1  7  2  0  0  0  0
  1  9  1  0  0  0  0
  2  4  1  0  0  0  0
  2 23  1  0  0  0  0
  2 25  1  0  0  0  0
  3  4  2  0  0  0  0
  4  6  2  0  0  0  0
  4 13  1  0  0  0  0
  5 14  2  0  0  0  0
  5 15  1  0  0  0  0
  7 11  1  0  0  0  0
  7 26  1  0  0  0  0
  8 21  2  0  0  0  0
  9 12  2  0  0  0  0
  9 27  1  0  0  0  0
 10 21  1  0  0  0  0
 10 45  1  0  0  0  0
 11 13  2  0  0  0  0
 11 28  1  0  0  0  0
 12 13  1  0  0  0  0
 12 29  1  0  0  0  0
 14 16  1  0  0  0  0
 14 30  1  0  0  0  0
 15 18  2  0  0  0  0
 15 31  1  0  0  0  0
 16 17  2  0  0  0  0
 16 32  1  0  0  0  0
 17 18  1  0  0  0  0
 17 33  1  0  0  0  0
 18 34  1  0  0  0  0
 19 20  1  0  0  0  0
 19 35  1  0  0  0  0
 19 36  1  0  0  0  0
 19 37  1  0  0  0  0
 20 22  1  0  0  0  0
 20 24  1  0  0  0  0
 20 38  1  0  0  0  0
 21 23  1  0  0  0  0
 22 23  1  0  0  0  0
 22 39  1  0  0  0  0
 22 40  1  0  0  0  0
 23 41  1  1  0  0  0
 24 42  1  0  0  0  0
 24 43  1  0  0  0  0
 24 44  1  0  0  0  0
M  END
>  <lm5_entropy_jk>
38.87358454694946

>  <number_of_rotatable_bonds>
7

>  <deltaG_kcalmol>
-10.38

>  <charge>
0

>  <protonation_change>
deprotonated_in_solution

>  <protonation_site>
45

>  <protonation_pKa>
2.36

>  <experiment_pH>
7.2

>  <protonation_pKa_method>
pKa of leucine

>  <protonated_energy_kcalmol>
-154.393863

>  <deprotonated_energy_kcalmol>
-245.115034

$$$$
