5QCU
 OpenBabel11252210453D

 76 77  0  0  1  0  0  0  0  0999 V2000
   27.1160    7.1450   19.3020 S   0  0  0  0  0  0  0  0  0  0  0  0
   27.9960    7.0140   17.8490 C   0  0  0  0  0  0  0  0  0  0  0  0
   27.8740    5.7950   16.8520 C   0  0  2  0  0  0  0  0  0  0  0  0
   28.9100    5.8890   15.6790 C   0  0  0  0  0  0  0  0  0  0  0  0
   30.2140    5.6620   16.0170 N   0  0  0  0  0  0  0  0  0  0  0  0
   31.3220    5.8990   15.0830 C   0  0  1  0  0  0  0  0  0  0  0  0
   32.2900    6.9170   15.7190 C   0  0  0  0  0  0  0  0  0  0  0  0
   31.5720    8.2090   16.1990 C   0  0  1  0  0  0  0  0  0  0  0  0
   32.5590    9.1210   16.9150 C   0  0  0  0  0  0  0  0  0  0  0  0
   31.8860   10.1650   17.8650 C   0  0  0  0  0  0  0  0  0  0  0  0
   31.1230    9.5590   19.0310 C   0  0  0  0  0  0  0  0  0  0  0  0
   29.7310    9.4380   18.9770 C   0  0  0  0  0  0  0  0  0  0  0  0
   29.0380    8.8240   20.0200 C   0  0  0  0  0  0  0  0  0  0  0  0
   29.7180    8.3700   21.1470 C   0  0  0  0  0  0  0  0  0  0  0  0
   31.1090    8.4980   21.2210 C   0  0  0  0  0  0  0  0  0  0  0  0
   31.8030    9.1020   20.1660 C   0  0  0  0  0  0  0  0  0  0  0  0
   27.5800    8.6010   19.9110 C   0  0  0  0  0  0  0  0  0  0  0  0
   30.9510    8.9760   15.0290 C   0  0  0  0  0  0  0  0  0  0  0  0
   31.9380    4.5670   14.5380 C   0  0  1  0  0  0  0  0  0  0  0  0
   32.6330    3.8430   15.5600 O   0  0  0  0  0  0  0  0  0  0  0  0
   30.7910    3.6670   13.9980 C   0  0  0  0  0  0  0  0  0  0  0  0
   31.1700    2.6420   12.8940 C   0  0  1  0  0  0  0  0  0  0  0  0
   30.0990    1.5030   12.9070 C   0  0  0  0  0  0  0  0  0  0  0  0
   31.2870    3.3150   11.4930 C   0  0  0  0  0  0  0  0  0  0  0  0
   30.3240    3.7480   10.8800 O   0  0  0  0  0  0  0  0  0  0  0  0
   32.5500    3.3390   10.9610 N   0  0  0  0  0  0  0  0  0  0  0  0
   32.8700    3.7780    9.5950 C   0  0  0  0  0  0  0  0  0  0  0  0
   34.2630    3.2450    9.2180 C   0  0  0  0  0  0  0  0  0  0  0  0
   34.6300    3.5060    7.7470 C   0  0  0  0  0  0  0  0  0  0  0  0
   34.7390    5.0260    7.5110 C   0  0  0  0  0  0  0  0  0  0  0  0
   28.5930    6.1680   14.5330 O   0  0  0  0  0  0  0  0  0  0  0  0
   26.4030    5.7560   16.3630 C   0  0  0  0  0  0  0  0  0  0  0  0
   25.7080    7.3070   19.0260 O   0  0  0  0  0  0  0  0  0  0  0  0
   27.5740    6.1080   20.2080 O   0  0  0  0  0  0  0  0  0  0  0  0
   28.9930    7.0660   18.2910 H   0  0  0  0  0  0  0  0  0  0  0  0
   27.7220    7.9630   17.3970 H   0  0  0  0  0  0  0  0  0  0  0  0
   28.1330    4.8410   17.3370 H   0  0  0  0  0  0  0  0  0  0  0  0
   30.4460    5.4710   16.9860 H   0  0  0  0  0  0  0  0  0  0  0  0
   30.9150    6.3940   14.1950 H   0  0  0  0  0  0  0  0  0  0  0  0
   33.0970    7.1740   15.0210 H   0  0  0  0  0  0  0  0  0  0  0  0
   32.7720    6.4340   16.5770 H   0  0  0  0  0  0  0  0  0  0  0  0
   30.7890    7.9350   16.9200 H   0  0  0  0  0  0  0  0  0  0  0  0
   33.1930    9.6280   16.1750 H   0  0  0  0  0  0  0  0  0  0  0  0
   33.2220    8.4810   17.4940 H   0  0  0  0  0  0  0  0  0  0  0  0
   32.6740   10.8040   18.2600 H   0  0  0  0  0  0  0  0  0  0  0  0
   31.2360   10.8420   17.3000 H   0  0  0  0  0  0  0  0  0  0  0  0
   29.2120    9.8010   18.0960 H   0  0  0  0  0  0  0  0  0  0  0  0
   29.1760    7.9080   21.9640 H   0  0  0  0  0  0  0  0  0  0  0  0
   31.6450    8.1130   22.0810 H   0  0  0  0  0  0  0  0  0  0  0  0
   32.8760    9.2160   20.2250 H   0  0  0  0  0  0  0  0  0  0  0  0
   27.0480    9.2540   19.2310 H   0  0  0  0  0  0  0  0  0  0  0  0
   27.0640    8.4880   20.8560 H   0  0  0  0  0  0  0  0  0  0  0  0
   32.6280    4.8220   13.7190 H   0  0  0  0  0  0  0  0  0  0  0  0
   30.3370    3.1680   14.8600 H   0  0  0  0  0  0  0  0  0  0  0  0
   29.9960    4.3010   13.5890 H   0  0  0  0  0  0  0  0  0  0  0  0
   32.1430    2.2050   13.1500 H   0  0  0  0  0  0  0  0  0  0  0  0
   33.2840    2.9460   11.5460 H   0  0  0  0  0  0  0  0  0  0  0  0
   32.8470    4.8790    9.5380 H   0  0  0  0  0  0  0  0  0  0  0  0
   32.1050    3.4150    8.8910 H   0  0  0  0  0  0  0  0  0  0  0  0
   35.0070    3.7160    9.8670 H   0  0  0  0  0  0  0  0  0  0  0  0
   34.3260    2.1720    9.4220 H   0  0  0  0  0  0  0  0  0  0  0  0
   35.5970    3.0270    7.5220 H   0  0  0  0  0  0  0  0  0  0  0  0
   33.8950    3.0430    7.0680 H   0  0  0  0  0  0  0  0  0  0  0  0
   30.5660    9.9470   15.3550 H   0  0  0  0  0  0  0  0  0  0  0  0
   30.1020    8.4270   14.6100 H   0  0  0  0  0  0  0  0  0  0  0  0
   31.6950    9.1630   14.2480 H   0  0  0  0  0  0  0  0  0  0  0  0
   30.3460    0.7230   12.1750 H   0  0  0  0  0  0  0  0  0  0  0  0
   29.1060    1.8950   12.6450 H   0  0  0  0  0  0  0  0  0  0  0  0
   30.0250    1.0250   13.8930 H   0  0  0  0  0  0  0  0  0  0  0  0
   35.3190    5.2530    6.6100 H   0  0  0  0  0  0  0  0  0  0  0  0
   33.7470    5.4960    7.4210 H   0  0  0  0  0  0  0  0  0  0  0  0
   35.2580    5.5140    8.3470 H   0  0  0  0  0  0  0  0  0  0  0  0
   33.5170    4.2640   15.6730 H   0  0  0  0  0  0  0  0  0  0  0  0
   26.2770    4.9850   15.5900 H   0  0  0  0  0  0  0  0  0  0  0  0
   26.1080    6.7140   15.9130 H   0  0  0  0  0  0  0  0  0  0  0  0
   25.6820    5.5160   17.1560 H   0  0  0  0  0  0  0  0  0  0  0  0
  1  2  1  0  0  0  0
  1 17  1  0  0  0  0
  1 33  2  0  0  0  0
  1 34  2  0  0  0  0
  2  3  1  0  0  0  0
  3  4  1  0  0  0  0
  3 32  1  0  0  0  0
  3 37  1  1  0  0  0
  4  5  1  0  0  0  0
  4 31  2  0  0  0  0
  5  6  1  0  0  0  0
  6  7  1  0  0  0  0
  6 19  1  0  0  0  0
  6 39  1  6  0  0  0
  7  8  1  0  0  0  0
  8  9  1  0  0  0  0
  8 18  1  0  0  0  0
  8 42  1  1  0  0  0
  9 10  1  0  0  0  0
 10 11  1  0  0  0  0
 11 12  2  0  0  0  0
 11 16  1  0  0  0  0
 12 13  1  0  0  0  0
 13 14  2  0  0  0  0
 13 17  1  0  0  0  0
 14 15  1  0  0  0  0
 15 16  2  0  0  0  0
 19 20  1  0  0  0  0
 19 21  1  0  0  0  0
 19 53  1  6  0  0  0
 21 22  1  0  0  0  0
 22 23  1  0  0  0  0
 22 24  1  0  0  0  0
 22 56  1  1  0  0  0
 24 25  2  0  0  0  0
 24 26  1  0  0  0  0
 26 27  1  0  0  0  0
 27 28  1  0  0  0  0
 28 29  1  0  0  0  0
 29 30  1  0  0  0  0
 35  2  1  0  0  0  0
 36  2  1  0  0  0  0
 38  5  1  0  0  0  0
 40  7  1  0  0  0  0
 41  7  1  0  0  0  0
 43  9  1  0  0  0  0
 44  9  1  0  0  0  0
 45 10  1  0  0  0  0
 46 10  1  0  0  0  0
 47 12  1  0  0  0  0
 48 14  1  0  0  0  0
 49 15  1  0  0  0  0
 50 16  1  0  0  0  0
 51 17  1  0  0  0  0
 52 17  1  0  0  0  0
 54 21  1  0  0  0  0
 55 21  1  0  0  0  0
 57 26  1  0  0  0  0
 58 27  1  0  0  0  0
 59 27  1  0  0  0  0
 60 28  1  0  0  0  0
 61 28  1  0  0  0  0
 62 29  1  0  0  0  0
 63 29  1  0  0  0  0
 64 18  1  0  0  0  0
 65 18  1  0  0  0  0
 66 18  1  0  0  0  0
 67 23  1  0  0  0  0
 68 23  1  0  0  0  0
 69 23  1  0  0  0  0
 70 30  1  0  0  0  0
 71 30  1  0  0  0  0
 72 30  1  0  0  0  0
 73 20  1  0  0  0  0
 74 32  1  0  0  0  0
 75 32  1  0  0  0  0
 76 32  1  0  0  0  0
M  END
>  <IC50_NM>
260

>  <number_of_rotatable_bonds>
8

>  <lm5_entropy_jk>
41.22412348393314

>  <charge>
0

>  <old_name>
BACE_19

>  <xray_resolution>
1.95

$$$$
