4XZI
 OpenBabel11252210453D

 34 35  0  0  0  0  0  0  0  0999 V2000
   16.6140  -10.2860   13.6710 C   0  0  0  0  0  0  0  0  0  0  0  0
   17.2950  -11.2320   14.4210 C   0  0  0  0  0  0  0  0  0  0  0  0
   16.6890  -10.3640   12.2310 C   0  0  0  0  0  0  0  0  0  0  0  0
   18.1510  -12.1730   13.8040 C   0  0  0  0  0  0  0  0  0  0  0  0
   17.5150  -11.3180   11.6200 C   0  0  0  0  0  0  0  0  0  0  0  0
   18.2680  -12.1940   12.4230 C   0  0  0  0  0  0  0  0  0  0  0  0
   15.7740   -9.1800   14.2860 C   0  0  0  0  0  0  0  0  0  0  0  0
   16.6150   -8.1920   15.0180 N   0  0  0  0  0  0  0  0  0  0  0  0
   17.4490   -7.2740   14.2660 C   0  0  0  0  0  0  0  0  0  0  0  0
   16.4180   -8.0730   16.4330 C   0  0  0  0  0  0  0  0  0  0  0  0
   18.3130   -6.4460   15.0730 C   0  0  0  0  0  0  0  0  0  0  0  0
   17.3050   -7.1760   17.1260 N   0  0  0  0  0  0  0  0  0  0  0  0
   18.2010   -6.3680   16.4270 C   0  0  0  0  0  0  0  0  0  0  0  0
   17.3470   -7.2820   13.0510 O   0  0  0  0  0  0  0  0  0  0  0  0
   16.8770   -6.7610   18.4900 C   0  0  0  0  0  0  0  0  0  0  0  0
   15.5910   -5.8430   18.3640 C   0  0  0  0  0  0  0  0  0  0  0  0
   15.0900   -5.4280   19.4210 O   0  5  0  0  0  0  0  0  0  0  0  0
   15.1690   -5.6550   17.2100 O   0  0  0  0  0  0  0  0  0  0  0  0
   15.5870   -8.7400   17.0190 O   0  0  0  0  0  0  0  0  0  0  0  0
   15.8270   -9.4870   11.6670 O   0  0  0  0  0  0  0  0  0  0  0  0
   15.8750   -9.1060   10.2680 C   0  0  0  0  0  0  0  0  0  0  0  0
   17.0550  -11.3360   16.3030 Br  0  0  0  0  0  0  0  0  0  0  0  0
   19.1400  -13.4050   14.8630 Br  0  0  0  0  0  0  0  0  0  0  0  0
   19.4630  -13.4380   11.5960 Br  0  0  0  0  0  0  0  0  0  0  0  0
   17.6960  -11.5010    9.7320 Br  0  0  0  0  0  0  0  0  0  0  0  0
   16.9060   -8.8400    9.9550 H   0  0  0  0  0  0  0  0  0  0  0  0
   15.0150   -9.6360   14.9880 H   0  0  0  0  0  0  0  0  0  0  0  0
   19.0800   -5.8660   14.5520 H   0  0  0  0  0  0  0  0  0  0  0  0
   18.8670   -5.7180   17.0220 H   0  0  0  0  0  0  0  0  0  0  0  0
   17.7290   -6.2510   19.0010 H   0  0  0  0  0  0  0  0  0  0  0  0
   15.2220   -8.2010   10.2870 H   0  0  0  0  0  0  0  0  0  0  0  0
   15.2250   -8.6410   13.4610 H   0  0  0  0  0  0  0  0  0  0  0  0
   16.6330   -7.6770   19.0830 H   0  0  0  0  0  0  0  0  0  0  0  0
   15.4240   -9.9090    9.6490 H   0  0  0  0  0  0  0  0  0  0  0  0
  1  2  2  0  0  0  0
  1  3  1  0  0  0  0
  1  7  1  0  0  0  0
  2  4  1  0  0  0  0
  2 22  1  0  0  0  0
  3  5  2  0  0  0  0
  3 20  1  0  0  0  0
  4  6  2  0  0  0  0
  4 23  1  0  0  0  0
  5  6  1  0  0  0  0
  5 25  1  0  0  0  0
  6 24  1  0  0  0  0
  7  8  1  0  0  0  0
  7 27  1  0  0  0  0
  7 32  1  0  0  0  0
  8  9  1  0  0  0  0
  8 10  1  0  0  0  0
  9 11  1  0  0  0  0
  9 14  2  0  0  0  0
 10 12  1  0  0  0  0
 10 19  2  0  0  0  0
 11 13  2  0  0  0  0
 11 28  1  0  0  0  0
 12 13  1  0  0  0  0
 12 15  1  0  0  0  0
 13 29  1  0  0  0  0
 15 16  1  0  0  0  0
 15 30  1  0  0  0  0
 15 33  1  0  0  0  0
 16 17  1  0  0  0  0
 16 18  2  0  0  0  0
 20 21  1  0  0  0  0
 21 26  1  0  0  0  0
 21 31  1  0  0  0  0
 21 34  1  0  0  0  0
M  CHG  1  17  -1
M  END
>  <deltaG_kcalmol>
-6.88

>  <charge>
-1

>  <number_of_rotatable_bonds>
5

>  <lm5_entropy_jk>
34.09880934168806

$$$$
