3RK9
 OpenBabel11252210453D

 32 33  0  0  1  0  0  0  0  0999 V2000
   64.4000  154.7740  -48.6470 N   0  0  0  0  0  0  0  0  0  0  0  0
   65.8330  154.3390  -50.4230 N   0  0  0  0  0  0  0  0  0  0  0  0
   67.3250  153.5250  -51.9870 N   0  0  0  0  0  0  0  0  0  0  0  0
   70.5230  149.6140  -47.6270 N   0  0  0  0  0  0  0  0  0  0  0  0
   63.0690  155.7520  -46.9080 C   0  0  0  0  0  0  0  0  0  0  0  0
   63.7670  154.4930  -47.3760 C   0  0  0  0  0  0  0  0  0  0  0  0
   62.7090  153.4450  -47.5890 C   0  0  0  0  0  0  0  0  0  0  0  0
   65.4890  154.1350  -49.1640 C   0  0  0  0  0  0  0  0  0  0  0  0
   66.8960  153.5340  -50.7270 C   0  0  0  0  0  0  0  0  0  0  0  0
   67.3820  152.7410  -49.7360 C   0  0  0  0  0  0  0  0  0  0  0  0
   68.5050  151.8170  -49.9230 C   0  0  0  0  0  0  0  0  0  0  0  0
   68.8140  150.8250  -48.8440 C   0  0  0  0  0  0  0  0  0  0  0  0
   67.8080  150.0920  -48.1860 C   0  0  0  0  0  0  0  0  0  0  0  0
   68.1930  149.1330  -47.2360 C   0  0  0  0  0  0  0  0  0  0  0  0
   69.5570  148.9220  -46.9850 C   0  0  0  0  0  0  0  0  0  0  0  0
   70.1570  150.5400  -48.5430 C   0  0  0  0  0  0  0  0  0  0  0  0
   69.1790  151.8350  -50.9380 O   0  0  0  0  0  0  0  0  0  0  0  0
   66.4710  152.9890  -48.2710 S   0  0  0  0  0  0  0  0  0  0  0  0
   63.7900  156.5560  -46.7300 H   0  0  0  0  0  0  0  0  0  0  0  0
   62.5320  155.5860  -45.9660 H   0  0  0  0  0  0  0  0  0  0  0  0
   62.3440  156.1080  -47.6500 H   0  0  0  0  0  0  0  0  0  0  0  0
   64.4920  154.1400  -46.6260 H   0  0  0  0  0  0  0  0  0  0  0  0
   62.1090  153.6590  -48.4810 H   0  0  0  0  0  0  0  0  0  0  0  0
   62.0470  153.3650  -46.7190 H   0  0  0  0  0  0  0  0  0  0  0  0
   63.1960  152.4760  -47.7140 H   0  0  0  0  0  0  0  0  0  0  0  0
   63.8680  155.3310  -49.3100 H   0  0  0  0  0  0  0  0  0  0  0  0
   67.0520  154.2530  -52.6340 H   0  0  0  0  0  0  0  0  0  0  0  0
   68.1830  153.0060  -52.1260 H   0  0  0  0  0  0  0  0  0  0  0  0
   66.7550  150.2440  -48.4190 H   0  0  0  0  0  0  0  0  0  0  0  0
   67.4440  148.5520  -46.6990 H   0  0  0  0  0  0  0  0  0  0  0  0
   69.8820  148.1670  -46.2600 H   0  0  0  0  0  0  0  0  0  0  0  0
   70.9640  151.0680  -49.0620 H   0  0  0  0  0  0  0  0  0  0  0  0
  1  6  1  0  0  0  0
  1  8  1  0  0  0  0
  1 26  1  0  0  0  0
  2  8  2  0  0  0  0
  2  9  1  0  0  0  0
  3  9  1  0  0  0  0
  3 27  1  0  0  0  0
  3 28  1  0  0  0  0
  4 15  2  0  0  0  0
  4 16  1  0  0  0  0
  5  6  1  0  0  0  0
  5 19  1  0  0  0  0
  5 20  1  0  0  0  0
  5 21  1  0  0  0  0
  6  7  1  0  0  0  0
  6 22  1  0  0  0  0
  7 23  1  0  0  0  0
  7 24  1  0  0  0  0
  7 25  1  0  0  0  0
  8 18  1  0  0  0  0
  9 10  2  0  0  0  0
 10 18  1  0  0  0  0
 11 10  1  0  0  0  0
 11 12  1  0  0  0  0
 11 17  2  0  0  0  0
 12 13  1  0  0  0  0
 12 16  2  0  0  0  0
 13 14  2  0  0  0  0
 13 29  1  0  0  0  0
 14 15  1  0  0  0  0
 14 30  1  0  0  0  0
 15 31  1  0  0  0  0
 16 32  1  0  0  0  0
M  END
>  <lm5_entropy_jk>
34.96174716553827

>  <number_of_rotatable_bonds>
4

>  <IC50_NM>
520

>  <charge>
0

$$$$
