3RK9
 OpenBabel11252210453D

 32 33  0  0  1  0  0  0  0  0999 V2000
   64.4370  155.0320  -48.5660 N   0  0  0  0  0  0  0  0  0  0  0  0
   65.6700  154.5140  -50.4610 N   0  0  0  0  0  0  0  0  0  0  0  0
   66.9770  153.6000  -52.1230 N   0  0  0  0  0  0  0  0  0  0  0  0
   70.9230  150.1940  -48.0340 N   0  0  0  0  0  0  0  0  0  0  0  0
   62.9700  155.8340  -46.8420 C   0  0  0  0  0  0  0  0  0  0  0  0
   63.9220  154.7280  -47.2490 C   0  0  0  0  0  0  0  0  0  0  0  0
   63.1070  153.4560  -47.3250 C   0  0  0  0  0  0  0  0  0  0  0  0
   65.4760  154.3800  -49.1630 C   0  0  0  0  0  0  0  0  0  0  0  0
   66.7050  153.7010  -50.8320 C   0  0  0  0  0  0  0  0  0  0  0  0
   67.3340  152.9940  -49.8610 C   0  0  0  0  0  0  0  0  0  0  0  0
   68.4800  152.1220  -50.1280 C   0  0  0  0  0  0  0  0  0  0  0  0
   68.9840  151.2280  -49.0450 C   0  0  0  0  0  0  0  0  0  0  0  0
   68.1280  150.4660  -48.2280 C   0  0  0  0  0  0  0  0  0  0  0  0
   68.7050  149.5740  -47.3120 C   0  0  0  0  0  0  0  0  0  0  0  0
   70.1020  149.4660  -47.2460 C   0  0  0  0  0  0  0  0  0  0  0  0
   70.3710  151.0520  -48.9190 C   0  0  0  0  0  0  0  0  0  0  0  0
   69.0300  152.1110  -51.2150 O   0  0  0  0  0  0  0  0  0  0  0  0
   66.5500  153.2630  -48.3350 S   0  0  0  0  0  0  0  0  0  0  0  0
   63.4910  156.7910  -46.7430 H   0  0  0  0  0  0  0  0  0  0  0  0
   62.5040  155.6200  -45.8720 H   0  0  0  0  0  0  0  0  0  0  0  0
   62.1680  155.9630  -47.5790 H   0  0  0  0  0  0  0  0  0  0  0  0
   64.7420  154.6310  -46.5190 H   0  0  0  0  0  0  0  0  0  0  0  0
   62.3660  153.5100  -48.1330 H   0  0  0  0  0  0  0  0  0  0  0  0
   62.5840  153.2570  -46.3810 H   0  0  0  0  0  0  0  0  0  0  0  0
   63.7610  152.6010  -47.5160 H   0  0  0  0  0  0  0  0  0  0  0  0
   63.7750  155.4320  -49.2250 H   0  0  0  0  0  0  0  0  0  0  0  0
   66.7040  154.3510  -52.7420 H   0  0  0  0  0  0  0  0  0  0  0  0
   67.8450  153.1110  -52.3020 H   0  0  0  0  0  0  0  0  0  0  0  0
   67.0450  150.5360  -48.3200 H   0  0  0  0  0  0  0  0  0  0  0  0
   68.0770  148.9570  -46.6690 H   0  0  0  0  0  0  0  0  0  0  0  0
   70.5730  148.7610  -46.5540 H   0  0  0  0  0  0  0  0  0  0  0  0
   71.0570  151.6050  -49.5670 H   0  0  0  0  0  0  0  0  0  0  0  0
  1  6  1  0  0  0  0
  1  8  1  0  0  0  0
  1 26  1  0  0  0  0
  2  8  2  0  0  0  0
  2  9  1  0  0  0  0
  3  9  1  0  0  0  0
  3 27  1  0  0  0  0
  3 28  1  0  0  0  0
  4 15  2  0  0  0  0
  4 16  1  0  0  0  0
  5  6  1  0  0  0  0
  5 19  1  0  0  0  0
  5 20  1  0  0  0  0
  5 21  1  0  0  0  0
  6  7  1  0  0  0  0
  6 22  1  0  0  0  0
  7 23  1  0  0  0  0
  7 24  1  0  0  0  0
  7 25  1  0  0  0  0
  8 18  1  0  0  0  0
  9 10  2  0  0  0  0
 10 18  1  0  0  0  0
 11 10  1  0  0  0  0
 11 12  1  0  0  0  0
 11 17  2  0  0  0  0
 12 13  1  0  0  0  0
 12 16  2  0  0  0  0
 13 14  2  0  0  0  0
 13 29  1  0  0  0  0
 14 15  1  0  0  0  0
 14 30  1  0  0  0  0
 15 31  1  0  0  0  0
 16 32  1  0  0  0  0
M  END
>  <lm5_entropy_jk>
34.96174716553827

>  <number_of_rotatable_bonds>
4

>  <IC50_NM>
520

>  <charge>
0

$$$$
