3RPY
 OpenBabel11252210453D

 31 32  0  0  0  0  0  0  0  0999 V2000
   68.7720  151.8310  -49.8310 C   0  0  0  0  0  0  0  0  0  0  0  0
   65.9830  154.3150  -50.4800 N   0  0  0  0  0  0  0  0  0  0  0  0
   60.1550  153.0900  -44.3990 O   0  0  0  0  0  0  0  0  0  0  0  0
   66.7830  153.0200  -48.2720 S   0  0  0  0  0  0  0  0  0  0  0  0
   67.5580  153.4480  -52.0740 N   0  0  0  0  0  0  0  0  0  0  0  0
   60.9460  155.0130  -43.0420 O   0  0  0  0  0  0  0  0  0  0  0  0
   61.2880  153.7940  -43.7940 S   0  0  0  0  0  0  0  0  0  0  0  0
   64.6060  154.8260  -48.6100 N   0  0  0  0  0  0  0  0  0  0  0  0
   62.1040  152.8070  -42.6770 N   0  0  0  0  0  0  0  0  0  0  0  0
   67.6680  152.7570  -49.7300 C   0  0  0  0  0  0  0  0  0  0  0  0
   67.1180  153.5000  -50.7910 C   0  0  0  0  0  0  0  0  0  0  0  0
   65.6580  154.1350  -49.1850 C   0  0  0  0  0  0  0  0  0  0  0  0
   63.9260  154.5270  -47.3930 C   0  0  0  0  0  0  0  0  0  0  0  0
   64.1030  153.3610  -46.6350 C   0  0  0  0  0  0  0  0  0  0  0  0
   63.3450  153.1750  -45.4750 C   0  0  0  0  0  0  0  0  0  0  0  0
   62.3900  154.1150  -45.0780 C   0  0  0  0  0  0  0  0  0  0  0  0
   62.2280  155.2900  -45.8290 C   0  0  0  0  0  0  0  0  0  0  0  0
   62.9880  155.5010  -46.9720 C   0  0  0  0  0  0  0  0  0  0  0  0
   69.4920  151.7610  -50.8320 O   0  0  0  0  0  0  0  0  0  0  0  0
   69.0420  150.9880  -48.7500 N   0  0  0  0  0  0  0  0  0  0  0  0
   67.1590  154.0780  -52.7970 H   0  0  0  0  0  0  0  0  0  0  0  0
   68.4270  152.9410  -52.2910 H   0  0  0  0  0  0  0  0  0  0  0  0
   64.0360  155.4360  -49.2550 H   0  0  0  0  0  0  0  0  0  0  0  0
   62.2010  151.7880  -42.9500 H   0  0  0  0  0  0  0  0  0  0  0  0
   61.9220  152.9040  -41.6690 H   0  0  0  0  0  0  0  0  0  0  0  0
   64.7910  152.5650  -46.9240 H   0  0  0  0  0  0  0  0  0  0  0  0
   63.5260  152.2640  -44.8930 H   0  0  0  0  0  0  0  0  0  0  0  0
   61.5000  156.0600  -45.5420 H   0  0  0  0  0  0  0  0  0  0  0  0
   62.8380  156.4100  -47.5570 H   0  0  0  0  0  0  0  0  0  0  0  0
   69.7710  150.2750  -48.8230 H   0  0  0  0  0  0  0  0  0  0  0  0
   68.4130  150.9000  -47.9450 H   0  0  0  0  0  0  0  0  0  0  0  0
  1 10  1  0  0  0  0
  1 20  1  0  0  0  0
  2 12  2  0  0  0  0
  3  7  2  0  0  0  0
  5 11  1  0  0  0  0
  5 21  1  0  0  0  0
  5 22  1  0  0  0  0
  7  6  2  0  0  0  0
  7  9  1  0  0  0  0
  8 13  1  0  0  0  0
  8 23  1  0  0  0  0
  9 24  1  0  0  0  0
  9 25  1  0  0  0  0
 10  4  1  0  0  0  0
 11  2  1  0  0  0  0
 11 10  2  0  0  0  0
 12  8  1  0  0  0  0
 12  4  1  0  0  0  0
 13 18  2  0  0  0  0
 13 14  1  0  0  0  0
 14 15  2  0  0  0  0
 14 26  1  0  0  0  0
 15 16  1  0  0  0  0
 15 27  1  0  0  0  0
 16  7  1  0  0  0  0
 17 16  2  0  0  0  0
 17 28  1  0  0  0  0
 18 17  1  0  0  0  0
 18 29  1  0  0  0  0
 19  1  2  0  0  0  0
 20 30  1  0  0  0  0
 20 31  1  0  0  0  0
M  END
>  <lm5_entropy_jk>
19.643205717801273

>  <number_of_rotatable_bonds>
4

>  <IC50_NM>
4800

>  <charge>
0

$$$$
