4LB4
 OpenBabel11252210453D

 35 36  0  0  0  0  0  0  0  0999 V2000
   14.1190  -12.0790   18.6600 Cl  0  0  0  0  0  0  0  0  0  0  0  0
   17.6890   -5.9040   13.3100 C   0  0  0  0  0  0  0  0  0  0  0  0
   16.3290   -6.0930   13.0220 C   0  0  0  0  0  0  0  0  0  0  0  0
   18.3750   -5.0120   12.4600 C   0  0  0  0  0  0  0  0  0  0  0  0
   15.7000   -5.4340   11.9450 C   0  0  0  0  0  0  0  0  0  0  0  0
   17.7630   -4.3660   11.3790 C   0  0  0  0  0  0  0  0  0  0  0  0
   16.4000   -4.5560   11.1140 C   0  0  0  0  0  0  0  0  0  0  0  0
   18.4560   -6.5580   14.4430 C   0  0  0  0  0  0  0  0  0  0  0  0
   17.6660   -7.4530   15.2950 N   0  0  0  0  0  0  0  0  0  0  0  0
   17.6980   -8.8310   15.1070 C   0  0  0  0  0  0  0  0  0  0  0  0
   16.9170   -9.6670   16.0670 C   0  0  0  0  0  0  0  0  0  0  0  0
   16.5070   -9.1810   17.3410 C   0  0  0  0  0  0  0  0  0  0  0  0
   16.5660  -10.9720   15.7070 C   0  0  0  0  0  0  0  0  0  0  0  0
   15.6040   -9.9110   18.1350 C   0  0  0  0  0  0  0  0  0  0  0  0
   15.7380  -11.7490   16.5260 C   0  0  0  0  0  0  0  0  0  0  0  0
   15.2470  -11.1780   17.6960 C   0  0  0  0  0  0  0  0  0  0  0  0
   18.3220   -9.3400   14.1770 O   0  0  0  0  0  0  0  0  0  0  0  0
   17.1250   -8.0360   17.6880 O   0  0  0  0  0  0  0  0  0  0  0  0
   16.7030   -7.2170   18.8140 C   0  0  0  0  0  0  0  0  0  0  0  0
   15.7360   -6.1070   18.2600 C   0  0  0  0  0  0  0  0  0  0  0  0
   15.1290   -5.4810   19.1460 O   0  0  0  0  0  0  0  0  0  0  0  0
   15.6560   -5.9830   17.0250 O   0  5  0  0  0  0  0  0  0  0  0  0
   15.5160   -3.5850    9.7520 Br  0  0  0  0  0  0  0  0  0  0  0  0
   15.5690   -6.8820   13.7660 F   0  0  0  0  0  0  0  0  0  0  0  0
   14.4070   -5.6500   11.7350 F   0  0  0  0  0  0  0  0  0  0  0  0
   18.4870   -3.5630   10.6080 F   0  0  0  0  0  0  0  0  0  0  0  0
   19.6590   -4.7530   12.6970 F   0  0  0  0  0  0  0  0  0  0  0  0
   17.6880   -6.8100   19.1320 H   0  0  0  0  0  0  0  0  0  0  0  0
   18.8710   -5.7350   15.0980 H   0  0  0  0  0  0  0  0  0  0  0  0
   17.1010   -6.9870   16.0520 H   0  0  0  0  0  0  0  0  0  0  0  0
   16.9190  -11.4040   14.7620 H   0  0  0  0  0  0  0  0  0  0  0  0
   15.2170   -9.5240   19.0740 H   0  0  0  0  0  0  0  0  0  0  0  0
   15.4770  -12.7700   16.2380 H   0  0  0  0  0  0  0  0  0  0  0  0
   16.2560   -7.8290   19.6120 H   0  0  0  0  0  0  0  0  0  0  0  0
   19.3230   -7.1330   13.9990 H   0  0  0  0  0  0  0  0  0  0  0  0
  1 16  1  0  0  0  0
  2  3  2  0  0  0  0
  2  4  1  0  0  0  0
  2  8  1  0  0  0  0
  3  5  1  0  0  0  0
  3 24  1  0  0  0  0
  4  6  2  0  0  0  0
  4 27  1  0  0  0  0
  5  7  2  0  0  0  0
  5 25  1  0  0  0  0
  6  7  1  0  0  0  0
  6 26  1  0  0  0  0
  7 23  1  0  0  0  0
  8  9  1  0  0  0  0
  8 29  1  0  0  0  0
  8 35  1  0  0  0  0
  9 10  1  0  0  0  0
  9 30  1  0  0  0  0
 10 11  1  0  0  0  0
 10 17  2  0  0  0  0
 11 12  2  0  0  0  0
 11 13  1  0  0  0  0
 12 14  1  0  0  0  0
 12 18  1  0  0  0  0
 13 15  2  0  0  0  0
 13 31  1  0  0  0  0
 14 16  2  0  0  0  0
 14 32  1  0  0  0  0
 15 16  1  0  0  0  0
 15 33  1  0  0  0  0
 18 19  1  0  0  0  0
 19 20  1  0  0  0  0
 19 28  1  0  0  0  0
 19 34  1  0  0  0  0
 20 21  2  0  0  0  0
 20 22  1  0  0  0  0
M  CHG  1  22  -1
M  END
>  <deltaG_kcalmol>
-10.46

>  <charge>
-1

>  <lm5_entropy_jk>
25.63780735381752

>  <number_of_rotatable_bonds>
7

$$$$
