3S00
 OpenBabel11252210453D

 28 29  0  0  1  0  0  0  0  0999 V2000
   65.8660  154.1290  -49.9540 N   0  0  0  0  0  0  0  0  0  0  0  0
   67.6030  153.3450  -51.2420 N   0  0  0  0  0  0  0  0  0  0  0  0
   64.1440  154.5690  -48.4470 N   0  0  0  0  0  0  0  0  0  0  0  0
   66.9510  153.3040  -50.0780 C   0  0  0  0  0  0  0  0  0  0  0  0
   67.2390  152.4820  -49.0270 C   0  0  0  0  0  0  0  0  0  0  0  0
   68.3240  151.4860  -49.0520 C   0  0  0  0  0  0  0  0  0  0  0  0
   68.6280  150.7150  -47.8180 C   0  0  0  0  0  0  0  0  0  0  0  0
   65.2780  153.8920  -48.8000 C   0  0  0  0  0  0  0  0  0  0  0  0
   63.3180  154.2470  -47.2550 C   0  0  0  0  0  0  0  0  0  0  0  0
   62.5420  155.4630  -46.8140 C   0  0  0  0  0  0  0  0  0  0  0  0
   62.0560  155.5890  -45.5750 C   0  0  0  0  0  0  0  0  0  0  0  0
   69.4180  149.0020  -46.1720 C   0  0  0  0  0  0  0  0  0  0  0  0
   68.7370  150.0290  -45.5760 C   0  0  0  0  0  0  0  0  0  0  0  0
   68.2990  151.0150  -46.5070 C   0  0  0  0  0  0  0  0  0  0  0  0
   68.9410  151.2660  -50.0800 O   0  0  0  0  0  0  0  0  0  0  0  0
   70.0780  147.6170  -45.3620 Cl  0  0  0  0  0  0  0  0  0  0  0  0
   65.9750  152.6180  -47.8330 S   0  0  0  0  0  0  0  0  0  0  0  0
   69.6010  149.2480  -47.9010 S   0  0  0  0  0  0  0  0  0  0  0  0
   67.1400  153.7750  -52.0270 H   0  0  0  0  0  0  0  0  0  0  0  0
   68.2580  152.5830  -51.3650 H   0  0  0  0  0  0  0  0  0  0  0  0
   63.7640  155.1850  -49.1660 H   0  0  0  0  0  0  0  0  0  0  0  0
   63.9450  153.9030  -46.4180 H   0  0  0  0  0  0  0  0  0  0  0  0
   62.6190  153.4280  -47.4820 H   0  0  0  0  0  0  0  0  0  0  0  0
   68.5400  150.0890  -44.5060 H   0  0  0  0  0  0  0  0  0  0  0  0
   67.7820  151.9090  -46.1710 H   0  0  0  0  0  0  0  0  0  0  0  0
   61.4890  156.4710  -45.2730 H   0  0  0  0  0  0  0  0  0  0  0  0
   62.2020  154.8200  -44.8150 H   0  0  0  0  0  0  0  0  0  0  0  0
   62.3870  156.2470  -47.5620 H   0  0  0  0  0  0  0  0  0  0  0  0
  1  4  1  0  0  0  0
  1  8  2  0  0  0  0
  2  4  1  0  0  0  0
  2 19  1  0  0  0  0
  2 20  1  0  0  0  0
  3  8  1  0  0  0  0
  3  9  1  0  0  0  0
  3 21  1  0  0  0  0
  4  5  2  0  0  0  0
  5  6  1  0  0  0  0
  5 17  1  0  0  0  0
  6  7  1  0  0  0  0
  6 15  2  0  0  0  0
  7 14  2  0  0  0  0
  7 18  1  0  0  0  0
  8 17  1  0  0  0  0
  9 10  1  0  0  0  0
  9 22  1  0  0  0  0
  9 23  1  0  0  0  0
 10 11  2  0  0  0  0
 10 28  1  0  0  0  0
 11 26  1  0  0  0  0
 11 27  1  0  0  0  0
 12 13  2  0  0  0  0
 12 16  1  0  0  0  0
 12 18  1  0  0  0  0
 13 14  1  0  0  0  0
 13 24  1  0  0  0  0
 14 25  1  0  0  0  0
M  END
>  <lm5_entropy_jk>
31.418959509749985

>  <number_of_rotatable_bonds>
5

>  <IC50_NM>
12000

>  <charge>
0

$$$$
