4guy.pdb
 OpenBabel11252210453D

 35 35  0  0  0  0  0  0  0  0999 V2000
    6.6720   24.9070    4.7740 C   0  0  0  0  0  0  0  0  0  0  0  0
    7.4610   26.8370    2.4450 N   0  0  0  0  0  0  0  0  0  0  0  0
    1.7700   22.8490    6.7530 O   0  0  0  0  0  0  0  0  0  0  0  0
    7.9980   27.1840    4.0410 S   0  0  0  0  0  0  0  0  0  0  0  0
    5.3490   24.3370    5.2230 C   0  0  0  0  0  0  0  0  0  0  0  0
    8.4690   23.8850    1.5760 N   0  0  0  0  0  0  0  0  0  0  0  0
    6.8870   24.8010    0.2160 O   0  0  0  0  0  0  0  0  0  0  0  0
    5.3050   23.2610    6.1310 C   0  0  0  0  0  0  0  0  0  0  0  0
    9.3030   26.5500    4.2480 O   0  0  0  0  0  0  0  0  0  0  0  0
    4.0930   22.7480    6.5810 C   0  0  0  0  0  0  0  0  0  0  0  0
    8.1060   22.6970    0.9030 O   0  0  0  0  0  0  0  0  0  0  0  0
    2.8970   23.3490    6.1370 C   0  0  0  0  0  0  0  0  0  0  0  0
    7.9840   28.6350    4.2050 O   0  0  0  0  0  0  0  0  0  0  0  0
    4.1430   24.8410    4.7190 C   0  0  0  0  0  0  0  0  0  0  0  0
    2.9130   24.3710    5.1830 C   0  0  0  0  0  0  0  0  0  0  0  0
    6.7750   26.4260    5.0260 C   0  0  0  0  0  0  0  0  0  0  0  0
    0.5020   23.4830    6.4310 C   0  0  0  0  0  0  0  0  0  0  0  0
    7.8480   25.0020    0.9420 C   0  0  0  0  0  0  0  0  0  0  0  0
    8.4060   26.3480    1.4260 C   0  0  0  0  0  0  0  0  0  0  0  0
    7.5150   24.3860    5.2970 H   0  0  0  0  0  0  0  0  0  0  0  0
    6.7760   24.6860    3.6770 H   0  0  0  0  0  0  0  0  0  0  0  0
    6.7240   27.4560    2.0540 H   0  0  0  0  0  0  0  0  0  0  0  0
    9.4980   23.8710    1.7550 H   0  0  0  0  0  0  0  0  0  0  0  0
    6.2380   22.8340    6.5020 H   0  0  0  0  0  0  0  0  0  0  0  0
    4.0610   21.9140    7.2810 H   0  0  0  0  0  0  0  0  0  0  0  0
    8.3440   21.9360    1.6420 H   0  0  0  0  0  0  0  0  0  0  0  0
    4.1470   25.6160    3.9530 H   0  0  0  0  0  0  0  0  0  0  0  0
    1.9970   24.8210    4.8030 H   0  0  0  0  0  0  0  0  0  0  0  0
    5.7720   26.8890    4.7970 H   0  0  0  0  0  0  0  0  0  0  0  0
    6.9830   26.6010    6.1160 H   0  0  0  0  0  0  0  0  0  0  0  0
   -0.1960   22.9480    7.1140 H   0  0  0  0  0  0  0  0  0  0  0  0
    0.2570   23.2990    5.3640 H   0  0  0  0  0  0  0  0  0  0  0  0
    0.5480   24.5700    6.6600 H   0  0  0  0  0  0  0  0  0  0  0  0
    8.4980   27.0490    0.5480 H   0  0  0  0  0  0  0  0  0  0  0  0
    9.4420   26.2200    1.8580 H   0  0  0  0  0  0  0  0  0  0  0  0
  1 16  1  0  0  0  0
  1  5  1  0  0  0  0
  1 20  1  0  0  0  0
  1 21  1  0  0  0  0
  2 19  1  0  0  0  0
  2  4  1  0  0  0  0
  2 22  1  0  0  0  0
  3 12  1  0  0  0  0
  3 17  1  0  0  0  0
  4  9  2  0  0  0  0
  4 16  1  0  0  0  0
  4 13  2  0  0  0  0
  5 14  2  0  0  0  0
  5  8  1  0  0  0  0
  6 11  1  0  0  0  0
  6 18  1  0  0  0  0
  6 23  1  0  0  0  0
  7 18  2  0  0  0  0
  8 10  2  0  0  0  0
  8 24  1  0  0  0  0
 10 12  1  0  0  0  0
 10 25  1  0  0  0  0
 11 26  1  0  0  0  0
 12 15  2  0  0  0  0
 14 15  1  0  0  0  0
 14 27  1  0  0  0  0
 15 28  1  0  0  0  0
 16 29  1  0  0  0  0
 16 30  1  0  0  0  0
 17 31  1  0  0  0  0
 17 32  1  0  0  0  0
 17 33  1  0  0  0  0
 18 19  1  0  0  0  0
 19 34  1  0  0  0  0
 19 35  1  0  0  0  0
M  END
>  <COMPND>
4guy.pdb

>  <AUTHOR>
GENERATED BY OPEN BABEL 2.3.1

>  <MASTER>
0    0    0    0    0    0    0    0   35    0   35    0

>  <lm5_entropy_jk>
33.27680186251505

>  <number_of_rotatable_bonds>
8

>  <deltaG_kcalmol>
-10.92

>  <charge>
0

$$$$
