3S1H
 OpenBabel11252210453D

 43 45  0  0  1  0  0  0  0  0999 V2000
   65.8940  154.3810  -50.5240 N   0  0  0  0  0  0  0  0  0  0  0  0
   67.3390  153.4890  -52.0900 N   0  0  0  0  0  0  0  0  0  0  0  0
   64.5280  154.8930  -48.7310 N   0  0  0  0  0  0  0  0  0  0  0  0
   61.8860  153.8130  -42.8980 N   0  0  0  0  0  0  0  0  0  0  0  0
   69.5520  149.5310  -46.4880 C   0  0  0  0  0  0  0  0  0  0  0  0
   70.5420  150.1840  -47.2180 C   0  0  0  0  0  0  0  0  0  0  0  0
   70.2250  150.9240  -48.3680 C   0  0  0  0  0  0  0  0  0  0  0  0
   67.8960  150.2850  -48.0980 C   0  0  0  0  0  0  0  0  0  0  0  0
   68.2290  149.5630  -46.9410 C   0  0  0  0  0  0  0  0  0  0  0  0
   68.9440  148.3720  -44.3680 C   0  0  0  0  0  0  0  0  0  0  0  0
   68.8900  151.0040  -48.7900 C   0  0  0  0  0  0  0  0  0  0  0  0
   68.5490  151.8500  -49.9780 C   0  0  0  0  0  0  0  0  0  0  0  0
   67.4580  152.8070  -49.8190 C   0  0  0  0  0  0  0  0  0  0  0  0
   66.9420  153.5530  -50.8270 C   0  0  0  0  0  0  0  0  0  0  0  0
   65.5910  154.2260  -49.2510 C   0  0  0  0  0  0  0  0  0  0  0  0
   63.8060  154.7940  -47.5650 C   0  0  0  0  0  0  0  0  0  0  0  0
   63.6920  153.5920  -46.8650 C   0  0  0  0  0  0  0  0  0  0  0  0
   62.8780  153.4960  -45.7340 C   0  0  0  0  0  0  0  0  0  0  0  0
   62.1830  154.6380  -45.3110 C   0  0  0  0  0  0  0  0  0  0  0  0
   62.2850  155.8590  -45.9910 C   0  0  0  0  0  0  0  0  0  0  0  0
   63.0940  155.9080  -47.1270 C   0  0  0  0  0  0  0  0  0  0  0  0
   60.1170  153.4020  -44.2340 O   0  0  0  0  0  0  0  0  0  0  0  0
   60.7000  155.7280  -43.3190 O   0  0  0  0  0  0  0  0  0  0  0  0
   69.1650  151.7440  -51.0230 O   0  0  0  0  0  0  0  0  0  0  0  0
   69.9120  148.9090  -45.3070 O   0  0  0  0  0  0  0  0  0  0  0  0
   66.6200  153.1420  -48.3400 S   0  0  0  0  0  0  0  0  0  0  0  0
   61.0490  154.4910  -44.0020 S   0  0  0  0  0  0  0  0  0  0  0  0
   71.5550  150.1380  -46.8500 H   0  0  0  0  0  0  0  0  0  0  0  0
   67.0460  154.2010  -52.7480 H   0  0  0  0  0  0  0  0  0  0  0  0
   68.1810  152.9460  -52.2350 H   0  0  0  0  0  0  0  0  0  0  0  0
   70.9980  151.4620  -48.9180 H   0  0  0  0  0  0  0  0  0  0  0  0
   64.0720  155.4890  -49.4140 H   0  0  0  0  0  0  0  0  0  0  0  0
   66.8620  150.3050  -48.4400 H   0  0  0  0  0  0  0  0  0  0  0  0
   61.1420  153.1230  -43.0070 H   0  0  0  0  0  0  0  0  0  0  0  0
   61.4510  154.5820  -42.3910 H   0  0  0  0  0  0  0  0  0  0  0  0
   67.4500  149.0380  -46.3990 H   0  0  0  0  0  0  0  0  0  0  0  0
   69.4360  147.9540  -43.4800 H   0  0  0  0  0  0  0  0  0  0  0  0
   68.3580  147.5660  -44.8310 H   0  0  0  0  0  0  0  0  0  0  0  0
   68.2490  149.1540  -44.0290 H   0  0  0  0  0  0  0  0  0  0  0  0
   64.1980  152.7030  -47.2180 H   0  0  0  0  0  0  0  0  0  0  0  0
   62.7880  152.5340  -45.2150 H   0  0  0  0  0  0  0  0  0  0  0  0
   61.7240  156.7530  -45.6900 H   0  0  0  0  0  0  0  0  0  0  0  0
   63.1460  156.8270  -47.6970 H   0  0  0  0  0  0  0  0  0  0  0  0
  1 14  1  0  0  0  0
  1 15  2  0  0  0  0
  2 14  1  0  0  0  0
  2 29  1  0  0  0  0
  2 30  1  0  0  0  0
  3 15  1  0  0  0  0
  3 16  1  0  0  0  0
  3 32  1  0  0  0  0
  4 27  1  0  0  0  0
  4 34  1  0  0  0  0
  4 35  1  0  0  0  0
  5  6  2  0  0  0  0
  5  9  1  0  0  0  0
  5 25  1  0  0  0  0
  6  7  1  0  0  0  0
  6 28  1  0  0  0  0
  7 11  2  0  0  0  0
  7 31  1  0  0  0  0
  8  9  2  0  0  0  0
  8 11  1  0  0  0  0
  8 33  1  0  0  0  0
  9 36  1  0  0  0  0
 10 25  1  0  0  0  0
 10 37  1  0  0  0  0
 10 38  1  0  0  0  0
 10 39  1  0  0  0  0
 12 11  1  0  0  0  0
 12 13  1  0  0  0  0
 12 24  2  0  0  0  0
 13 14  2  0  0  0  0
 13 26  1  0  0  0  0
 15 26  1  0  0  0  0
 16 17  2  0  0  0  0
 16 21  1  0  0  0  0
 17 18  1  0  0  0  0
 17 40  1  0  0  0  0
 18 19  2  0  0  0  0
 18 41  1  0  0  0  0
 19 20  1  0  0  0  0
 19 27  1  0  0  0  0
 20 21  2  0  0  0  0
 20 42  1  0  0  0  0
 21 43  1  0  0  0  0
 22 27  2  0  0  0  0
 23 27  2  0  0  0  0
M  END
>  <lm5_entropy_jk>
33.50945403317048

>  <number_of_rotatable_bonds>
6

>  <IC50_NM>
17000

>  <charge>
0

$$$$
