01-25.pdb
 OpenBabel11252210453D

 83 85  0  0  1  0  0  0  0  0999 V2000
    6.1030   18.2550   12.0620 C   0  0  0  0  0  0  0  0  0  0  0  0
   11.2490   17.8430    7.5880 C   0  0  1  0  0  0  0  0  0  0  0  0
    4.8690   16.4630   13.1620 N   0  0  0  0  0  0  0  0  0  0  0  0
    8.3190   18.4260    8.9460 N   0  0  0  0  0  0  0  0  0  0  0  0
   12.1810   18.6480    6.8330 O   0  0  0  0  0  0  0  0  0  0  0  0
    5.1820   19.1930   12.5500 C   0  0  0  0  0  0  0  0  0  0  0  0
    9.8710   18.2390    7.0180 C   0  0  0  0  0  0  0  0  0  0  0  0
    4.7950   17.4150    9.4070 N   0  0  0  0  0  0  0  0  0  0  0  0
    5.6540   19.2930    8.4100 O   0  0  0  0  0  0  0  0  0  0  0  0
    4.0930   18.7530   13.3050 C   0  0  0  0  0  0  0  0  0  0  0  0
    8.7210   17.6720    7.8230 C   0  0  0  0  0  0  0  0  0  0  0  0
   11.7130   16.0040    5.9700 N   0  0  0  0  0  0  0  0  0  0  0  0
    8.1880   16.6030    7.5790 O   0  0  0  0  0  0  0  0  0  0  0  0
    3.9550   17.3810   13.5750 C   0  0  0  0  0  0  0  0  0  0  0  0
    7.1860   17.9820    9.7860 C   0  0  1  0  0  0  0  0  0  0  0  0
   10.3570   14.1390    5.9960 O   0  0  0  0  0  0  0  0  0  0  0  0
    7.2500   18.6540   11.1770 C   0  0  0  0  0  0  0  0  0  0  0  0
    5.9180   16.9010   12.4220 C   0  0  0  0  0  0  0  0  0  0  0  0
    5.8300   18.2970    9.0940 C   0  0  0  0  0  0  0  0  0  0  0  0
    3.5070   17.4360    8.6640 C   0  0  0  0  0  0  0  0  0  0  0  0
    3.4140   16.2950    7.6330 C   0  0  0  0  0  0  0  0  0  0  0  0
    4.4390   16.4000    6.4950 C   0  0  0  0  0  0  0  0  0  0  0  0
    4.0630   17.4480    5.4350 C   0  0  0  0  0  0  0  0  0  0  0  0
    5.2660   17.9450    4.6150 C   0  0  0  0  0  0  0  0  0  0  0  0
    6.1610   16.8070    4.1010 C   0  0  0  0  0  0  0  0  0  0  0  0
    7.0470   17.2540    2.9280 C   0  0  0  0  0  0  0  0  0  0  0  0
    8.0210   16.1530    2.4770 C   0  0  0  0  0  0  0  0  0  0  0  0
    9.2660   16.0660    3.3700 C   0  0  0  0  0  0  0  0  0  0  0  0
   10.0910   14.8060    3.0700 C   0  0  0  0  0  0  0  0  0  0  0  0
   11.3920   14.7570    3.8870 C   0  0  0  0  0  0  0  0  0  0  0  0
   11.6100   16.3260    7.4030 C   0  0  1  0  0  0  0  0  0  0  0  0
   11.0970   14.8850    5.3740 C   0  0  0  0  0  0  0  0  0  0  0  0
   12.9270   16.0110    8.1680 C   0  0  0  0  0  0  0  0  0  0  0  0
   13.3880   14.5880    7.9890 C   0  0  0  0  0  0  0  0  0  0  0  0
   12.7410   13.5380    8.6610 C   0  0  0  0  0  0  0  0  0  0  0  0
   13.1330   12.2130    8.4600 C   0  0  0  0  0  0  0  0  0  0  0  0
   14.1980   11.9170    7.6030 C   0  0  0  0  0  0  0  0  0  0  0  0
   14.8760   12.9580    6.9640 C   0  0  0  0  0  0  0  0  0  0  0  0
   14.4770   14.2840    7.1570 C   0  0  0  0  0  0  0  0  0  0  0  0
   15.0290   15.0820    6.6640 H   0  0  0  0  0  0  0  0  0  0  0  0
    8.6140   19.4130    9.0360 H   0  0  0  0  0  0  0  0  0  0  0  0
   11.3270   18.1180    8.6660 H   0  0  0  0  0  0  0  0  0  0  0  0
   12.8250   19.1020    7.4950 H   0  0  0  0  0  0  0  0  0  0  0  0
    9.7880   17.8620    5.9630 H   0  0  0  0  0  0  0  0  0  0  0  0
    5.0100   16.4900    9.8220 H   0  0  0  0  0  0  0  0  0  0  0  0
   12.5140   16.4570    5.4980 H   0  0  0  0  0  0  0  0  0  0  0  0
    7.2830   16.8710    9.9230 H   0  0  0  0  0  0  0  0  0  0  0  0
    7.2760   19.7670   11.0550 H   0  0  0  0  0  0  0  0  0  0  0  0
    8.2010   18.3300   11.6750 H   0  0  0  0  0  0  0  0  0  0  0  0
    5.3070   20.2620   12.3510 H   0  0  0  0  0  0  0  0  0  0  0  0
    3.3530   19.4650   13.6820 H   0  0  0  0  0  0  0  0  0  0  0  0
    3.0940   17.0080   14.1500 H   0  0  0  0  0  0  0  0  0  0  0  0
    6.6350   16.1380   12.0900 H   0  0  0  0  0  0  0  0  0  0  0  0
    3.3820   18.4280    8.1580 H   0  0  0  0  0  0  0  0  0  0  0  0
    2.3780   16.2990    7.2100 H   0  0  0  0  0  0  0  0  0  0  0  0
    4.5100   15.4030    6.0020 H   0  0  0  0  0  0  0  0  0  0  0  0
    3.6020   18.3360    5.9270 H   0  0  0  0  0  0  0  0  0  0  0  0
    5.8800   18.6290    5.2450 H   0  0  0  0  0  0  0  0  0  0  0  0
    5.5260   15.9590    3.7570 H   0  0  0  0  0  0  0  0  0  0  0  0
    7.6210   18.1630    3.2150 H   0  0  0  0  0  0  0  0  0  0  0  0
    8.3430   16.3710    1.4310 H   0  0  0  0  0  0  0  0  0  0  0  0
    8.9520   16.0600    4.4390 H   0  0  0  0  0  0  0  0  0  0  0  0
   10.3650   14.7960    1.9870 H   0  0  0  0  0  0  0  0  0  0  0  0
   12.0670   15.5740    3.5330 H   0  0  0  0  0  0  0  0  0  0  0  0
   10.7800   15.7210    7.8550 H   0  0  0  0  0  0  0  0  0  0  0  0
   12.7550   16.2220    9.2540 H   0  0  0  0  0  0  0  0  0  0  0  0
   11.9480   13.7670    9.3660 H   0  0  0  0  0  0  0  0  0  0  0  0
   12.6140   11.4090    8.9850 H   0  0  0  0  0  0  0  0  0  0  0  0
   14.5070   10.8820    7.4450 H   0  0  0  0  0  0  0  0  0  0  0  0
   15.7270   12.7400    6.3130 H   0  0  0  0  0  0  0  0  0  0  0  0
   13.7170   16.7180    7.8210 H   0  0  0  0  0  0  0  0  0  0  0  0
    9.8200   19.3550    6.9810 H   0  0  0  0  0  0  0  0  0  0  0  0
    2.6900   17.3070    9.4260 H   0  0  0  0  0  0  0  0  0  0  0  0
    3.5620   15.3190    8.1570 H   0  0  0  0  0  0  0  0  0  0  0  0
    5.4420   16.6450    6.9180 H   0  0  0  0  0  0  0  0  0  0  0  0
    3.3090   17.0060    4.7420 H   0  0  0  0  0  0  0  0  0  0  0  0
    4.8740   18.5280    3.7480 H   0  0  0  0  0  0  0  0  0  0  0  0
    6.8110   16.4590    4.9360 H   0  0  0  0  0  0  0  0  0  0  0  0
    6.3920   17.5060    2.0630 H   0  0  0  0  0  0  0  0  0  0  0  0
    7.4890   15.1760    2.4800 H   0  0  0  0  0  0  0  0  0  0  0  0
    9.9000   16.9670    3.1940 H   0  0  0  0  0  0  0  0  0  0  0  0
    9.4890   13.8960    3.2930 H   0  0  0  0  0  0  0  0  0  0  0  0
   11.9040   13.7820    3.7000 H   0  0  0  0  0  0  0  0  0  0  0  0
  1  6  2  0  0  0  0
  1 18  1  0  0  0  0
  2 42  1  1  0  0  0
  2 31  1  0  0  0  0
  3 14  1  0  0  0  0
  4 41  1  0  0  0  0
  4 15  1  0  0  0  0
  5 43  1  0  0  0  0
  5  2  1  0  0  0  0
  6 10  1  0  0  0  0
  7  2  1  0  0  0  0
  7 11  1  0  0  0  0
  8 45  1  0  0  0  0
  9 19  2  0  0  0  0
 10 51  1  0  0  0  0
 10 14  2  0  0  0  0
 11  4  1  0  0  0  0
 12 31  1  0  0  0  0
 13 11  2  0  0  0  0
 14 52  1  0  0  0  0
 15 47  1  1  0  0  0
 15 17  1  0  0  0  0
 17 49  1  0  0  0  0
 17  1  1  0  0  0  0
 18  3  2  0  0  0  0
 19  8  1  0  0  0  0
 19 15  1  0  0  0  0
 20  8  1  0  0  0  0
 20 73  1  0  0  0  0
 21 74  1  0  0  0  0
 21 20  1  0  0  0  0
 22 75  1  0  0  0  0
 22 21  1  0  0  0  0
 23 57  1  0  0  0  0
 23 22  1  0  0  0  0
 24 58  1  0  0  0  0
 24 23  1  0  0  0  0
 25 24  1  0  0  0  0
 25 78  1  0  0  0  0
 26 60  1  0  0  0  0
 26 25  1  0  0  0  0
 27 26  1  0  0  0  0
 27 28  1  0  0  0  0
 28 62  1  0  0  0  0
 29 28  1  0  0  0  0
 29 82  1  0  0  0  0
 29 30  1  0  0  0  0
 30 32  1  0  0  0  0
 31 65  1  1  0  0  0
 31 33  1  0  0  0  0
 32 12  1  0  0  0  0
 32 16  2  0  0  0  0
 33 66  1  0  0  0  0
 34 33  1  0  0  0  0
 34 35  2  0  0  0  0
 35 67  1  0  0  0  0
 36 35  1  0  0  0  0
 36 68  1  0  0  0  0
 37 36  2  0  0  0  0
 38 39  2  0  0  0  0
 38 37  1  0  0  0  0
 39 34  1  0  0  0  0
 40 39  1  0  0  0  0
 44  7  1  0  0  0  0
 46 12  1  0  0  0  0
 48 17  1  0  0  0  0
 50  6  1  0  0  0  0
 53 18  1  0  0  0  0
 54 20  1  0  0  0  0
 55 21  1  0  0  0  0
 56 22  1  0  0  0  0
 59 25  1  0  0  0  0
 61 27  1  0  0  0  0
 63 29  1  0  0  0  0
 64 30  1  0  0  0  0
 69 37  1  0  0  0  0
 70 38  1  0  0  0  0
 71 33  1  0  0  0  0
 72  7  1  0  0  0  0
 76 23  1  0  0  0  0
 77 24  1  0  0  0  0
 79 26  1  0  0  0  0
 80 27  1  0  0  0  0
 81 28  1  0  0  0  0
 83 30  1  0  0  0  0
M  END
>  <IC50_NM>
1.1

>  <number_of_rotatable_bonds>
4

>  <charge>
0

>  <lm5_entropy_jk>
18.43900937288166

$$$$
