2ZHD
 OpenBabel11252210453D

 64 66  0  0  1  0  0  0  0  0999 V2000
    2.5690   20.5950   18.3070 N   0  0  0  0  0  0  0  0  0  0  0  0
   -1.6140   12.4690   14.8120 N   0  3  0  0  0  0  0  0  0  0  0  0
   -2.8190   14.2290   13.8990 N   0  0  0  0  0  0  0  0  0  0  0  0
    3.7280   21.2810   15.2110 N   0  3  0  0  0  0  0  0  0  0  0  0
    0.7220   17.5910   19.3800 N   0  0  0  0  0  0  0  0  0  0  0  0
    2.3670   19.4050   19.1880 C   0  0  1  0  0  0  0  0  0  0  0  0
    2.9110   19.8060   20.5790 C   0  0  0  0  0  0  0  0  0  0  0  0
    3.2700   21.3020   20.5180 C   0  0  0  0  0  0  0  0  0  0  0  0
    3.2070   21.7340   19.0420 C   0  0  0  0  0  0  0  0  0  0  0  0
    2.5970   21.7840   16.1050 C   0  0  0  0  0  0  0  0  0  0  0  0
    0.8890   18.9760   19.2870 C   0  0  0  0  0  0  0  0  0  0  0  0
   -2.0610   13.7500   14.9260 C   0  0  0  0  0  0  0  0  0  0  0  0
    2.0750   20.6560   17.0180 C   0  0  0  0  0  0  0  0  0  0  0  0
   -0.6140   16.9750   19.5360 C   0  0  0  0  0  0  0  0  0  0  0  0
   -0.9740   16.1560   18.3150 C   0  0  0  0  0  0  0  0  0  0  0  0
   -0.7650   14.7670   18.3260 C   0  0  0  0  0  0  0  0  0  0  0  0
   -1.1270   13.9880   17.2330 C   0  0  0  0  0  0  0  0  0  0  0  0
   -1.6790   14.5860   16.0800 C   0  0  0  0  0  0  0  0  0  0  0  0
   -1.8850   15.9800   16.0740 C   0  0  0  0  0  0  0  0  0  0  0  0
   -1.5430   16.7540   17.1820 C   0  0  0  0  0  0  0  0  0  0  0  0
    7.2210   21.0210   12.8630 C   0  0  0  0  0  0  0  0  0  0  0  0
    6.4710   20.3840   14.0480 C   0  0  0  0  0  0  0  0  0  0  0  0
    6.2610   21.3350   15.2340 C   0  0  0  0  0  0  0  0  0  0  0  0
    4.9920   22.2030   15.2200 C   0  0  0  0  0  0  0  0  0  0  0  0
    4.8920   23.2190   14.0740 C   0  0  0  0  0  0  0  0  0  0  0  0
    5.3020   22.7310   12.6730 C   0  0  0  0  0  0  0  0  0  0  0  0
    6.8110   22.4680   12.5550 C   0  0  0  0  0  0  0  0  0  0  0  0
   -0.0550   19.7410   19.3570 O   0  0  0  0  0  0  0  0  0  0  0  0
    1.3110   19.8020   16.5870 O   0  0  0  0  0  0  0  0  0  0  0  0
    2.9860   18.5730   18.7530 H   0  0  0  0  0  0  0  0  0  0  0  0
    3.8230   19.2020   20.8080 H   0  0  0  0  0  0  0  0  0  0  0  0
    2.1580   19.6240   21.3810 H   0  0  0  0  0  0  0  0  0  0  0  0
    2.5520   21.9090   21.1240 H   0  0  0  0  0  0  0  0  0  0  0  0
    4.2970   21.4840   20.9220 H   0  0  0  0  0  0  0  0  0  0  0  0
    2.5990   22.6700   18.9230 H   0  0  0  0  0  0  0  0  0  0  0  0
    4.2360   21.9060   18.6270 H   0  0  0  0  0  0  0  0  0  0  0  0
    1.7430   22.1530   15.4540 H   0  0  0  0  0  0  0  0  0  0  0  0
    2.9330   22.6960   16.6790 H   0  0  0  0  0  0  0  0  0  0  0  0
    4.0160   20.3190   15.5220 H   0  0  0  0  0  0  0  0  0  0  0  0
    3.3610   21.2380   14.2180 H   0  0  0  0  0  0  0  0  0  0  0  0
    1.5100   16.9240   19.3180 H   0  0  0  0  0  0  0  0  0  0  0  0
   -0.5850   16.3090   20.4470 H   0  0  0  0  0  0  0  0  0  0  0  0
   -1.3970   17.7740   19.6910 H   0  0  0  0  0  0  0  0  0  0  0  0
   -0.3290   14.2860   19.2080 H   0  0  0  0  0  0  0  0  0  0  0  0
   -0.9900   12.9070   17.3040 H   0  0  0  0  0  0  0  0  0  0  0  0
   -2.3200   16.4870   15.2100 H   0  0  0  0  0  0  0  0  0  0  0  0
   -1.7390   17.8340   17.1520 H   0  0  0  0  0  0  0  0  0  0  0  0
    8.3140   21.0210   13.0950 H   0  0  0  0  0  0  0  0  0  0  0  0
    7.0500   20.3650   11.9790 H   0  0  0  0  0  0  0  0  0  0  0  0
    7.0700   19.5040   14.4040 H   0  0  0  0  0  0  0  0  0  0  0  0
    5.4980   19.9880   13.6800 H   0  0  0  0  0  0  0  0  0  0  0  0
    7.1220   22.0640   15.2610 H   0  0  0  0  0  0  0  0  0  0  0  0
    6.2920   20.7630   16.1870 H   0  0  0  0  0  0  0  0  0  0  0  0
    4.9660   22.7800   16.1920 H   0  0  0  0  0  0  0  0  0  0  0  0
    3.8500   23.6290   14.0370 H   0  0  0  0  0  0  0  0  0  0  0  0
    5.5590   24.0800   14.3580 H   0  0  0  0  0  0  0  0  0  0  0  0
    4.7240   21.8160   12.4210 H   0  0  0  0  0  0  0  0  0  0  0  0
    5.0140   23.5420   11.9550 H   0  0  0  0  0  0  0  0  0  0  0  0
    7.3420   23.1470   13.2710 H   0  0  0  0  0  0  0  0  0  0  0  0
    7.1640   22.7440   11.5330 H   0  0  0  0  0  0  0  0  0  0  0  0
   -3.2760   15.1610   13.9330 H   0  0  0  0  0  0  0  0  0  0  0  0
   -3.1400   13.5720   13.1410 H   0  0  0  0  0  0  0  0  0  0  0  0
   -0.9570   12.0410   15.4980 H   0  0  0  0  0  0  0  0  0  0  0  0
   -2.0420   11.8030   14.1270 H   0  0  0  0  0  0  0  0  0  0  0  0
  1  6  1  0  0  0  0
  1  9  1  0  0  0  0
  1 13  1  0  0  0  0
  2 12  2  0  0  0  0
  2 63  1  0  0  0  0
  2 64  1  0  0  0  0
  3 12  1  0  0  0  0
  3 61  1  0  0  0  0
  3 62  1  0  0  0  0
  4 10  1  0  0  0  0
  4 24  1  0  0  0  0
  4 39  1  0  0  0  0
  4 40  1  0  0  0  0
  5 11  1  0  0  0  0
  5 14  1  0  0  0  0
  5 41  1  0  0  0  0
  6  7  1  0  0  0  0
  6 11  1  0  0  0  0
  6 30  1  6  0  0  0
  7  8  1  0  0  0  0
  7 31  1  0  0  0  0
  7 32  1  0  0  0  0
  8  9  1  0  0  0  0
  8 33  1  0  0  0  0
  8 34  1  0  0  0  0
  9 35  1  0  0  0  0
  9 36  1  0  0  0  0
 10 13  1  0  0  0  0
 10 37  1  0  0  0  0
 10 38  1  0  0  0  0
 11 28  2  0  0  0  0
 12 18  1  0  0  0  0
 13 29  2  0  0  0  0
 14 15  1  0  0  0  0
 14 42  1  0  0  0  0
 14 43  1  0  0  0  0
 15 16  2  0  0  0  0
 15 20  1  0  0  0  0
 16 17  1  0  0  0  0
 16 44  1  0  0  0  0
 17 18  2  0  0  0  0
 17 45  1  0  0  0  0
 18 19  1  0  0  0  0
 19 20  2  0  0  0  0
 19 46  1  0  0  0  0
 20 47  1  0  0  0  0
 21 22  1  0  0  0  0
 21 27  1  0  0  0  0
 21 48  1  0  0  0  0
 21 49  1  0  0  0  0
 22 23  1  0  0  0  0
 22 50  1  0  0  0  0
 22 51  1  0  0  0  0
 23 24  1  0  0  0  0
 23 52  1  0  0  0  0
 23 53  1  0  0  0  0
 24 25  1  0  0  0  0
 24 54  1  0  0  0  0
 25 26  1  0  0  0  0
 25 55  1  0  0  0  0
 25 56  1  0  0  0  0
 26 27  1  0  0  0  0
 26 57  1  0  0  0  0
 26 58  1  0  0  0  0
 27 59  1  0  0  0  0
 27 60  1  0  0  0  0
M  CHG  2   2   1   4   1
M  END
>  <number_of_rotatable_bonds>
9

>  <lm5_entropy_jk>
23.69757746385818

>  <deltaG_kcalmol>
-8.93

>  <charge>
2

$$$$
