JAK1_10.pdb
 OpenBabel11252210453D

 48 51  0  0  1  0  0  0  0  0999 V2000
  -10.4410   29.1200    2.0760 C   0  0  0  0  0  0  0  0  0  0  0  0
  -11.4370   29.5490    1.0090 C   0  0  1  0  0  0  0  0  0  0  0  0
  -10.8200   29.9520   -0.2260 O   0  0  0  0  0  0  0  0  0  0  0  0
  -12.4550   28.4690    0.7040 C   0  0  0  0  0  0  0  0  0  0  0  0
  -13.6770   28.7240   -0.0060 N   0  0  0  0  0  0  0  0  0  0  0  0
  -14.4080   27.5290    0.0240 C   0  0  0  0  0  0  0  0  0  0  0  0
  -13.5640   26.5790    0.7100 C   0  0  0  0  0  0  0  0  0  0  0  0
  -12.3780   27.1950    1.1170 N   0  0  0  0  0  0  0  0  0  0  0  0
  -13.9570   25.2170    0.9020 C   0  0  0  0  0  0  0  0  0  0  0  0
  -15.1200   24.7540    0.4540 N   0  0  0  0  0  0  0  0  0  0  0  0
  -15.9400   25.6730   -0.1910 C   0  0  0  0  0  0  0  0  0  0  0  0
  -15.6680   27.0710   -0.4350 C   0  0  0  0  0  0  0  0  0  0  0  0
  -16.8120   27.5900   -1.1160 C   0  0  0  0  0  0  0  0  0  0  0  0
  -17.7210   26.5500   -1.2830 C   0  0  0  0  0  0  0  0  0  0  0  0
  -17.1930   25.3690   -0.7320 N   0  0  0  0  0  0  0  0  0  0  0  0
  -14.0100   30.0470   -0.6040 C   0  0  1  0  0  0  0  0  0  0  0  0
  -14.3070   29.9780   -2.1150 C   0  0  0  0  0  0  0  0  0  0  0  0
  -14.5820   31.3910   -2.6600 C   0  0  0  0  0  0  0  0  0  0  0  0
  -15.7010   32.1070   -1.8670 C   0  0  1  0  0  0  0  0  0  0  0  0
  -15.3730   32.1310   -0.3590 C   0  0  0  0  0  0  0  0  0  0  0  0
  -15.1660   30.7070    0.1760 C   0  0  0  0  0  0  0  0  0  0  0  0
  -15.9030   33.5420   -2.4040 C   0  0  0  0  0  0  0  0  0  0  0  0
  -17.3310   34.0740   -2.1780 C   0  0  0  0  0  0  0  0  0  0  0  0
  -17.5480   34.7010   -0.8890 C   0  0  0  0  0  0  0  0  0  0  0  0
  -17.7740   35.2000    0.1300 N   0  0  0  0  0  0  0  0  0  0  0  0
  -11.9710   30.4840    1.3270 H   0  0  0  0  0  0  0  0  0  0  0  0
  -13.2910   24.5250    1.4400 H   0  0  0  0  0  0  0  0  0  0  0  0
  -16.9730   28.5950   -1.4630 H   0  0  0  0  0  0  0  0  0  0  0  0
  -18.6810   26.5690   -1.7730 H   0  0  0  0  0  0  0  0  0  0  0  0
  -13.0940   30.6970   -0.4880 H   0  0  0  0  0  0  0  0  0  0  0  0
  -15.1990   29.3360   -2.3130 H   0  0  0  0  0  0  0  0  0  0  0  0
  -13.4340   29.5490   -2.6570 H   0  0  0  0  0  0  0  0  0  0  0  0
  -13.6550   32.0070   -2.6290 H   0  0  0  0  0  0  0  0  0  0  0  0
  -14.9020   31.3020   -3.7260 H   0  0  0  0  0  0  0  0  0  0  0  0
  -16.6450   31.5240   -2.0220 H   0  0  0  0  0  0  0  0  0  0  0  0
  -14.4480   32.7310   -0.2020 H   0  0  0  0  0  0  0  0  0  0  0  0
  -16.2110   32.6210    0.1870 H   0  0  0  0  0  0  0  0  0  0  0  0
  -16.0970   30.1110    0.0360 H   0  0  0  0  0  0  0  0  0  0  0  0
  -14.9200   30.7410    1.2610 H   0  0  0  0  0  0  0  0  0  0  0  0
  -15.1660   34.2380   -1.9460 H   0  0  0  0  0  0  0  0  0  0  0  0
  -15.7260   33.5380   -3.5100 H   0  0  0  0  0  0  0  0  0  0  0  0
  -18.0610   33.2220   -2.2830 H   0  0  0  0  0  0  0  0  0  0  0  0
  -17.5680   34.8280   -2.9830 H   0  0  0  0  0  0  0  0  0  0  0  0
  -17.6910   24.4770   -0.6580 H   0  0  0  0  0  0  0  0  0  0  0  0
   -9.8790   29.5470   -0.3080 H   0  0  0  0  0  0  0  0  0  0  0  0
   -9.7550   29.9650    2.3250 H   0  0  0  0  0  0  0  0  0  0  0  0
   -9.8400   28.2400    1.7570 H   0  0  0  0  0  0  0  0  0  0  0  0
  -10.9800   28.8420    3.0160 H   0  0  0  0  0  0  0  0  0  0  0  0
  1  2  1  0  0  0  0
  2  4  1  0  0  0  0
  2  3  1  0  0  0  0
  2 26  1  1  0  0  0
  4  5  1  0  0  0  0
  4  8  2  0  0  0  0
  6  7  1  0  0  0  0
  6  5  1  0  0  0  0
  7  8  1  0  0  0  0
  9  7  2  0  0  0  0
  9 10  1  0  0  0  0
 11 12  1  0  0  0  0
 11 10  2  0  0  0  0
 11 15  1  0  0  0  0
 12 13  1  0  0  0  0
 12  6  2  0  0  0  0
 13 14  2  0  0  0  0
 14 15  1  0  0  0  0
 16 17  1  0  0  0  0
 16 21  1  0  0  0  0
 16  5  1  0  0  0  0
 16 30  1  1  0  0  0
 17 18  1  0  0  0  0
 18 19  1  0  0  0  0
 19 20  1  0  0  0  0
 19 22  1  0  0  0  0
 19 35  1  6  0  0  0
 20 21  1  0  0  0  0
 22 23  1  0  0  0  0
 23 24  1  0  0  0  0
 24 25  3  0  0  0  0
 27  9  1  0  0  0  0
 28 13  1  0  0  0  0
 29 14  1  0  0  0  0
 31 17  1  0  0  0  0
 32 17  1  0  0  0  0
 33 18  1  0  0  0  0
 34 18  1  0  0  0  0
 36 20  1  0  0  0  0
 37 20  1  0  0  0  0
 38 21  1  0  0  0  0
 39 21  1  0  0  0  0
 40 22  1  0  0  0  0
 41 22  1  0  0  0  0
 42 23  1  0  0  0  0
 43 23  1  0  0  0  0
 44 15  1  0  0  0  0
 45  3  1  0  0  0  0
 46  1  1  0  0  0  0
 47  1  1  0  0  0  0
 48  1  1  0  0  0  0
M  END
>  <charge>
0

>  <pKi>
9.52

>  <number_of_rotatable_bonds>
4

>  <lm5_entropy_jk>
29.79021667027897

$$$$
