3QTU
 OpenBabel11252210453D

 44 46  0  0  0  0  0  0  0  0999 V2000
   66.0140  154.2500  -50.5890 N   0  0  0  0  0  0  0  0  0  0  0  0
   64.6040  154.6600  -48.8200 N   0  0  0  0  0  0  0  0  0  0  0  0
   67.3760  153.3560  -52.2000 N   0  0  0  0  0  0  0  0  0  0  0  0
   62.0000  153.3990  -42.9650 N   0  0  0  0  0  0  0  0  0  0  0  0
   70.1680  146.6910  -45.4010 N   0  0  0  0  0  0  0  0  0  0  0  0
   67.5210  152.5790  -49.9630 C   0  0  0  0  0  0  0  0  0  0  0  0
   67.0350  153.4070  -50.9250 C   0  0  0  0  0  0  0  0  0  0  0  0
   65.7160  154.0610  -49.3240 C   0  0  0  0  0  0  0  0  0  0  0  0
   63.8910  154.5410  -47.6520 C   0  0  0  0  0  0  0  0  0  0  0  0
   68.5010  151.5040  -50.2450 C   0  0  0  0  0  0  0  0  0  0  0  0
   68.8430  150.4750  -49.1770 C   0  0  0  0  0  0  0  0  0  0  0  0
   63.1020  155.6140  -47.2390 C   0  0  0  0  0  0  0  0  0  0  0  0
   62.3140  155.5430  -46.0900 C   0  0  0  0  0  0  0  0  0  0  0  0
   62.3200  154.3480  -45.3600 C   0  0  0  0  0  0  0  0  0  0  0  0
   63.1050  153.2520  -45.7540 C   0  0  0  0  0  0  0  0  0  0  0  0
   63.8830  153.3620  -46.9080 C   0  0  0  0  0  0  0  0  0  0  0  0
   70.1510  149.9520  -49.1330 C   0  0  0  0  0  0  0  0  0  0  0  0
   70.5550  149.0910  -48.1060 C   0  0  0  0  0  0  0  0  0  0  0  0
   69.6370  148.7340  -47.0960 C   0  0  0  0  0  0  0  0  0  0  0  0
   68.2880  149.1440  -47.1910 C   0  0  0  0  0  0  0  0  0  0  0  0
   67.9010  149.9860  -48.2450 C   0  0  0  0  0  0  0  0  0  0  0  0
   69.0380  151.4320  -51.3380 O   0  0  0  0  0  0  0  0  0  0  0  0
   60.1700  153.1970  -44.3470 O   0  0  0  0  0  0  0  0  0  0  0  0
   60.9040  155.3990  -43.3150 O   0  0  0  0  0  0  0  0  0  0  0  0
   71.7340  148.4560  -45.5490 O   0  0  0  0  0  0  0  0  0  0  0  0
   69.4300  148.7490  -44.4720 O   0  0  0  0  0  0  0  0  0  0  0  0
   66.7990  152.9980  -48.4320 S   0  0  0  0  0  0  0  0  0  0  0  0
   61.1980  154.1700  -44.0370 S   0  0  0  0  0  0  0  0  0  0  0  0
   70.2820  148.2460  -45.5360 S   0  0  0  0  0  0  0  0  0  0  0  0
   64.1510  155.2740  -49.4870 H   0  0  0  0  0  0  0  0  0  0  0  0
   67.1470  154.1260  -52.8170 H   0  0  0  0  0  0  0  0  0  0  0  0
   68.1690  152.7550  -52.3870 H   0  0  0  0  0  0  0  0  0  0  0  0
   61.4250  152.6080  -43.2780 H   0  0  0  0  0  0  0  0  0  0  0  0
   61.3970  153.9670  -42.3770 H   0  0  0  0  0  0  0  0  0  0  0  0
   70.9340  146.5150  -46.0560 H   0  0  0  0  0  0  0  0  0  0  0  0
   69.3150  146.6110  -45.9430 H   0  0  0  0  0  0  0  0  0  0  0  0
   63.0750  156.5160  -47.8370 H   0  0  0  0  0  0  0  0  0  0  0  0
   61.6870  156.4000  -45.8140 H   0  0  0  0  0  0  0  0  0  0  0  0
   63.1160  152.3100  -45.1990 H   0  0  0  0  0  0  0  0  0  0  0  0
   64.4480  152.5000  -47.2380 H   0  0  0  0  0  0  0  0  0  0  0  0
   70.8790  150.2820  -49.8740 H   0  0  0  0  0  0  0  0  0  0  0  0
   71.6070  148.7980  -48.0530 H   0  0  0  0  0  0  0  0  0  0  0  0
   67.5520  148.9090  -46.4130 H   0  0  0  0  0  0  0  0  0  0  0  0
   66.8660  150.3110  -48.3020 H   0  0  0  0  0  0  0  0  0  0  0  0
  1  8  2  0  0  0  0
  2  9  1  0  0  0  0
  2 30  1  0  0  0  0
  3  7  1  0  0  0  0
  3 31  1  0  0  0  0
  3 32  1  0  0  0  0
  4 33  1  0  0  0  0
  4 34  1  0  0  0  0
  5 29  1  0  0  0  0
  5 35  1  0  0  0  0
  5 36  1  0  0  0  0
  6 27  1  0  0  0  0
  7  1  1  0  0  0  0
  7  6  2  0  0  0  0
  8  2  1  0  0  0  0
  8 27  1  0  0  0  0
  9 12  2  0  0  0  0
  9 16  1  0  0  0  0
 10  6  1  0  0  0  0
 10 11  1  0  0  0  0
 11 17  2  0  0  0  0
 11 21  1  0  0  0  0
 12 13  1  0  0  0  0
 12 37  1  0  0  0  0
 13 14  2  0  0  0  0
 13 38  1  0  0  0  0
 14 28  1  0  0  0  0
 15 14  1  0  0  0  0
 15 39  1  0  0  0  0
 16 15  2  0  0  0  0
 16 40  1  0  0  0  0
 17 18  1  0  0  0  0
 17 41  1  0  0  0  0
 18 19  2  0  0  0  0
 18 42  1  0  0  0  0
 19 29  1  0  0  0  0
 20 19  1  0  0  0  0
 20 43  1  0  0  0  0
 21 20  2  0  0  0  0
 21 44  1  0  0  0  0
 22 10  2  0  0  0  0
 23 28  2  0  0  0  0
 28 24  2  0  0  0  0
 28  4  1  0  0  0  0
 29 25  2  0  0  0  0
 29 26  2  0  0  0  0
M  END
>  <lm5_entropy_jk>
23.933690845995674

>  <number_of_rotatable_bonds>
6

>  <IC50_NM>
70

>  <charge>
0

$$$$
