2IKJ
 OpenBabel11252210453D

 37 38  0  0  0  0  0  0  0  0999 V2000
   17.1820   -4.4500   11.1200 C   0  0  0  0  0  0  0  0  0  0  0  0
   17.9250   -3.5300   10.2440 N   0  3  0  0  0  0  0  0  0  0  0  0
   17.3040   -2.7800    9.5020 O   0  5  0  0  0  0  0  0  0  0  0  0
   19.1500   -3.5760   10.2740 O   0  0  0  0  0  0  0  0  0  0  0  0
   17.8620   -5.0400   12.1950 C   0  0  0  0  0  0  0  0  0  0  0  0
   17.1840   -5.9240   13.0450 C   0  0  0  0  0  0  0  0  0  0  0  0
   17.9620   -6.5120   14.2070 C   0  0  0  0  0  0  0  0  0  0  0  0
   17.1770   -7.4360   15.0470 N   0  0  0  0  0  0  0  0  0  0  0  0
   17.4730   -8.7970   15.0490 C   0  0  0  0  0  0  0  0  0  0  0  0
   16.7370   -9.6360   16.0420 C   0  0  0  0  0  0  0  0  0  0  0  0
   16.3880  -10.9500   15.7210 C   0  0  0  0  0  0  0  0  0  0  0  0
   15.6230  -11.7250   16.6010 C   0  0  0  0  0  0  0  0  0  0  0  0
   15.1980  -11.1410   17.7910 C   0  0  0  0  0  0  0  0  0  0  0  0
   14.1590  -12.0530   18.8400 Cl  0  0  0  0  0  0  0  0  0  0  0  0
   15.5520   -9.8580   18.1850 C   0  0  0  0  0  0  0  0  0  0  0  0
   16.3930   -9.1270   17.3260 C   0  0  0  0  0  0  0  0  0  0  0  0
   17.0070   -7.9600   17.6000 O   0  0  0  0  0  0  0  0  0  0  0  0
   16.6730   -7.1590   18.7690 C   0  0  0  0  0  0  0  0  0  0  0  0
   15.6470   -6.0610   18.3140 C   0  0  0  0  0  0  0  0  0  0  0  0
   15.1070   -5.4500   19.2530 O   0  0  0  0  0  0  0  0  0  0  0  0
   15.4460   -5.9270   17.0940 O   0  5  0  0  0  0  0  0  0  0  0  0
   18.2630   -9.2970   14.2520 O   0  0  0  0  0  0  0  0  0  0  0  0
   15.8280   -6.1940   12.8000 C   0  0  0  0  0  0  0  0  0  0  0  0
   15.1580   -5.5890   11.7310 C   0  0  0  0  0  0  0  0  0  0  0  0
   15.8240   -4.7050   10.8800 C   0  0  0  0  0  0  0  0  0  0  0  0
   16.2980   -7.7840   19.5930 H   0  0  0  0  0  0  0  0  0  0  0  0
   17.6750   -6.7430   19.0140 H   0  0  0  0  0  0  0  0  0  0  0  0
   16.5990   -6.9800   15.7940 H   0  0  0  0  0  0  0  0  0  0  0  0
   18.8610   -7.0540   13.7960 H   0  0  0  0  0  0  0  0  0  0  0  0
   18.3180   -5.6570   14.8500 H   0  0  0  0  0  0  0  0  0  0  0  0
   18.9090   -4.7840   12.3750 H   0  0  0  0  0  0  0  0  0  0  0  0
   15.2900   -4.2100   10.0650 H   0  0  0  0  0  0  0  0  0  0  0  0
   14.0940   -5.7850   11.5690 H   0  0  0  0  0  0  0  0  0  0  0  0
   15.2740   -6.8630   13.4630 H   0  0  0  0  0  0  0  0  0  0  0  0
   15.2060   -9.4580   19.1330 H   0  0  0  0  0  0  0  0  0  0  0  0
   15.3570  -12.7520   16.3440 H   0  0  0  0  0  0  0  0  0  0  0  0
   16.6880  -11.3900   14.7630 H   0  0  0  0  0  0  0  0  0  0  0  0
  1  5  1  0  0  0  0
  2  4  2  0  0  0  0
  2  1  1  0  0  0  0
  3  2  1  0  0  0  0
  5 31  1  0  0  0  0
  5  6  2  0  0  0  0
  6  7  1  0  0  0  0
  7 30  1  0  0  0  0
  7  8  1  0  0  0  0
  8  9  1  0  0  0  0
  8 28  1  0  0  0  0
  9 10  1  0  0  0  0
 10 16  1  0  0  0  0
 11 10  2  0  0  0  0
 11 12  1  0  0  0  0
 12 13  2  0  0  0  0
 13 15  1  0  0  0  0
 13 14  1  0  0  0  0
 15 35  1  0  0  0  0
 16 17  1  0  0  0  0
 16 15  2  0  0  0  0
 17 18  1  0  0  0  0
 18 27  1  0  0  0  0
 18 26  1  0  0  0  0
 19 18  1  0  0  0  0
 19 20  2  0  0  0  0
 21 19  1  0  0  0  0
 22  9  2  0  0  0  0
 23  6  1  0  0  0  0
 23 34  1  0  0  0  0
 24 23  2  0  0  0  0
 25  1  2  0  0  0  0
 25 24  1  0  0  0  0
 29  7  1  0  0  0  0
 32 25  1  0  0  0  0
 33 24  1  0  0  0  0
 36 12  1  0  0  0  0
 37 11  1  0  0  0  0
M  CHG  3   2   1   3  -1  21  -1
M  END
>  <lm5_entropy_jk>
26.811197289937112

>  <number_of_rotatable_bonds>
8

>  <deltaG_kcalmol>
-10.09

>  <charge>
-1

$$$$
