3RKB
 OpenBabel11252210453D

 39 41  0  0  0  0  0  0  0  0999 V2000
   67.3710  152.9510  -49.8460 C   0  0  0  0  0  0  0  0  0  0  0  0
   66.7610  153.6480  -50.8370 C   0  0  0  0  0  0  0  0  0  0  0  0
   65.7170  154.4600  -50.4950 N   0  0  0  0  0  0  0  0  0  0  0  0
   65.4980  154.3420  -49.2010 C   0  0  0  0  0  0  0  0  0  0  0  0
   66.5600  153.2430  -48.3360 S   0  0  0  0  0  0  0  0  0  0  0  0
   68.5200  152.0730  -50.0810 C   0  0  0  0  0  0  0  0  0  0  0  0
   67.0590  153.5400  -52.1230 N   0  0  0  0  0  0  0  0  0  0  0  0
   64.4460  154.9990  -48.6340 N   0  0  0  0  0  0  0  0  0  0  0  0
   69.0910  152.0490  -51.1570 O   0  0  0  0  0  0  0  0  0  0  0  0
   70.0810  149.4580  -47.1250 C   0  0  0  0  0  0  0  0  0  0  0  0
   70.9180  150.1660  -47.9140 N   0  0  0  0  0  0  0  0  0  0  0  0
   70.3840  151.0080  -48.8240 C   0  0  0  0  0  0  0  0  0  0  0  0
   69.0000  151.1900  -48.9760 C   0  0  0  0  0  0  0  0  0  0  0  0
   68.1270  150.4460  -48.1610 C   0  0  0  0  0  0  0  0  0  0  0  0
   68.6850  149.5710  -47.2170 C   0  0  0  0  0  0  0  0  0  0  0  0
   62.6520  153.5090  -45.5890 C   0  0  0  0  0  0  0  0  0  0  0  0
   63.1560  153.6250  -47.0540 C   0  0  0  0  0  0  0  0  0  0  0  0
   64.0240  154.8780  -47.2440 C   0  0  0  0  0  0  0  0  0  0  0  0
   63.2060  156.1180  -46.8570 C   0  0  0  0  0  0  0  0  0  0  0  0
   62.7390  156.0500  -45.3800 C   0  0  0  0  0  0  0  0  0  0  0  0
   61.8870  154.7830  -45.1570 C   0  0  0  0  0  0  0  0  0  0  0  0
   66.8090  154.3040  -52.7360 H   0  0  0  0  0  0  0  0  0  0  0  0
   67.9340  153.0550  -52.2800 H   0  0  0  0  0  0  0  0  0  0  0  0
   63.7740  155.3780  -49.2950 H   0  0  0  0  0  0  0  0  0  0  0  0
   70.5370  148.7700  -46.4070 H   0  0  0  0  0  0  0  0  0  0  0  0
   71.0820  151.5480  -49.4720 H   0  0  0  0  0  0  0  0  0  0  0  0
   67.0450  150.5180  -48.2730 H   0  0  0  0  0  0  0  0  0  0  0  0
   68.0440  148.9710  -46.5720 H   0  0  0  0  0  0  0  0  0  0  0  0
   63.5050  153.3470  -44.9130 H   0  0  0  0  0  0  0  0  0  0  0  0
   62.0140  152.6240  -45.4690 H   0  0  0  0  0  0  0  0  0  0  0  0
   63.7350  152.7330  -47.3190 H   0  0  0  0  0  0  0  0  0  0  0  0
   62.3080  153.6690  -47.7500 H   0  0  0  0  0  0  0  0  0  0  0  0
   64.9000  154.8140  -46.5900 H   0  0  0  0  0  0  0  0  0  0  0  0
   62.3360  156.2000  -47.5240 H   0  0  0  0  0  0  0  0  0  0  0  0
   63.8010  157.0210  -47.0160 H   0  0  0  0  0  0  0  0  0  0  0  0
   62.1580  156.9500  -45.1200 H   0  0  0  0  0  0  0  0  0  0  0  0
   63.6060  156.0410  -44.7030 H   0  0  0  0  0  0  0  0  0  0  0  0
   61.5910  154.7090  -44.1000 H   0  0  0  0  0  0  0  0  0  0  0  0
   60.9560  154.8790  -45.7300 H   0  0  0  0  0  0  0  0  0  0  0  0
  1  5  1  0  0  0  0
  2  3  1  0  0  0  0
  2  1  2  0  0  0  0
  3  4  2  0  0  0  0
  4  8  1  0  0  0  0
  4  5  1  0  0  0  0
  6  1  1  0  0  0  0
  6 13  1  0  0  0  0
  7  2  1  0  0  0  0
  7 22  1  0  0  0  0
  7 23  1  0  0  0  0
  8 18  1  0  0  0  0
  8 24  1  0  0  0  0
  9  6  2  0  0  0  0
 10 25  1  0  0  0  0
 11 10  2  0  0  0  0
 12 11  1  0  0  0  0
 12 26  1  0  0  0  0
 13 12  2  0  0  0  0
 13 14  1  0  0  0  0
 14 15  2  0  0  0  0
 14 27  1  0  0  0  0
 15 10  1  0  0  0  0
 15 28  1  0  0  0  0
 16 21  1  0  0  0  0
 16 29  1  0  0  0  0
 16 30  1  0  0  0  0
 17 16  1  0  0  0  0
 17 31  1  0  0  0  0
 17 32  1  0  0  0  0
 18 17  1  0  0  0  0
 18 19  1  0  0  0  0
 18 33  1  0  0  0  0
 19 20  1  0  0  0  0
 19 34  1  0  0  0  0
 19 35  1  0  0  0  0
 20 21  1  0  0  0  0
 20 36  1  0  0  0  0
 20 37  1  0  0  0  0
 21 38  1  0  0  0  0
 21 39  1  0  0  0  0
M  END
>  <lm5_entropy_jk>
20.214453483104165

>  <number_of_rotatable_bonds>
4

>  <IC50_NM>
380

>  <charge>
0

$$$$
