16f.pdb
 OpenBabel11252210453D

 93 97  0  0  1  0  0  0  0  0999 V2000
    8.4520   -6.1720   17.5480 C   0  0  0  0  0  0  0  0  0  0  0  0
    5.8410    6.3430    6.3540 C   0  0  0  0  0  0  0  0  0  0  0  0
    8.0380   -5.4610   16.4160 O   0  0  0  0  0  0  0  0  0  0  0  0
    7.4960   -6.7260   18.4210 C   0  0  0  0  0  0  0  0  0  0  0  0
    6.1290    7.4560    6.7530 O   0  0  0  0  0  0  0  0  0  0  0  0
    6.5430   -3.6120   14.5710 O   0  0  0  0  0  0  0  0  0  0  0  0
    7.9220   -7.7180   19.3160 C   0  0  0  0  0  0  0  0  0  0  0  0
    5.4590   -3.4160   16.5780 N   0  0  0  0  0  0  0  0  0  0  0  0
    9.2590   -8.1170   19.3550 C   0  0  0  0  0  0  0  0  0  0  0  0
    7.4050    0.8240   12.7740 C   0  0  0  0  0  0  0  0  0  0  0  0
    4.6450    0.3810   13.6270 N   0  0  0  0  0  0  0  0  0  0  0  0
    5.2080    0.7850   16.4260 O   0  0  0  0  0  0  0  0  0  0  0  0
   10.2100   -7.4760   18.5590 C   0  0  0  0  0  0  0  0  0  0  0  0
    7.2530    2.1440   12.3200 C   0  0  0  0  0  0  0  0  0  0  0  0
    4.6540   -1.0650   11.8610 O   0  0  0  0  0  0  0  0  0  0  0  0
    9.8260   -6.4650   17.6670 C   0  0  0  0  0  0  0  0  0  0  0  0
    7.4860    2.4530   10.9770 C   0  0  0  0  0  0  0  0  0  0  0  0
    6.0790   -6.2780   18.4090 C   0  0  0  0  0  0  0  0  0  0  0  0
    7.8580    1.4480   10.0800 C   0  0  0  0  0  0  0  0  0  0  0  0
   10.8410   -5.7150   16.8790 C   0  0  0  0  0  0  0  0  0  0  0  0
    8.0360    0.1380   10.5350 C   0  0  0  0  0  0  0  0  0  0  0  0
    7.8250   -0.1740   11.8790 C   0  0  0  0  0  0  0  0  0  0  0  0
    7.8380   -4.0400   16.5940 C   0  0  0  0  0  0  0  0  0  0  0  0
    6.5760   -3.6860   15.7870 C   0  0  0  0  0  0  0  0  0  0  0  0
    4.1970   -2.8550   16.0400 C   0  0  1  0  0  0  0  0  0  0  0  0
    6.1360    5.8730    4.9660 C   0  0  0  0  0  0  0  0  0  0  0  0
    2.2040   -6.8780   15.5660 C   0  0  0  0  0  0  0  0  0  0  0  0
    2.4580   -7.6660   16.6940 C   0  0  0  0  0  0  0  0  0  0  0  0
    2.8730   -7.0590   17.8820 C   0  0  0  0  0  0  0  0  0  0  0  0
    3.0530   -5.6740   17.9370 C   0  0  0  0  0  0  0  0  0  0  0  0
    2.8250   -4.8850   16.8010 C   0  0  0  0  0  0  0  0  0  0  0  0
    2.3910   -5.4950   15.6130 C   0  0  0  0  0  0  0  0  0  0  0  0
    3.0090   -3.3970   16.8790 C   0  0  0  0  0  0  0  0  0  0  0  0
    4.1730   -1.3140   16.1730 C   0  0  0  0  0  0  0  0  0  0  0  0
    5.4330   -0.5230   15.8250 C   0  0  1  0  0  0  0  0  0  0  0  0
    5.7550   -0.3180   14.3210 C   0  0  2  0  0  0  0  0  0  0  0  0
    4.2720   -0.0130   12.3530 C   0  0  0  0  0  0  0  0  0  0  0  0
    3.2460    0.8690   11.6100 C   0  0  1  0  0  0  0  0  0  0  0  0
    3.0410    2.1190   12.3400 O   0  0  0  0  0  0  0  0  0  0  0  0
    7.0810    0.4800   14.2000 C   0  0  0  0  0  0  0  0  0  0  0  0
    3.2350    3.2300   11.5060 C   0  0  0  0  0  0  0  0  0  0  0  0
    3.0510    4.3410   11.9230 O   0  0  0  0  0  0  0  0  0  0  0  0
    3.5680    2.7730   10.2140 N   0  0  0  0  0  0  0  0  0  0  0  0
    3.7120    1.2880   10.1970 C   0  0  0  0  0  0  0  0  0  0  0  0
    4.1090    3.6180    9.1880 C   0  0  0  0  0  0  0  0  0  0  0  0
    5.2010    3.2150    8.4030 C   0  0  0  0  0  0  0  0  0  0  0  0
    5.7320    4.0890    7.4550 C   0  0  0  0  0  0  0  0  0  0  0  0
    5.1840    5.3670    7.2830 C   0  0  0  0  0  0  0  0  0  0  0  0
    4.0490    5.7400    8.0190 C   0  0  0  0  0  0  0  0  0  0  0  0
    3.5110    4.8760    8.9720 C   0  0  0  0  0  0  0  0  0  0  0  0
    5.4460   -6.9100   19.0770 H   0  0  0  0  0  0  0  0  0  0  0  0
    5.6520   -6.3240   17.3780 H   0  0  0  0  0  0  0  0  0  0  0  0
    6.0000   -5.2240   18.7660 H   0  0  0  0  0  0  0  0  0  0  0  0
    5.5240   -3.3960   17.6120 H   0  0  0  0  0  0  0  0  0  0  0  0
    4.4160    1.3140   13.9850 H   0  0  0  0  0  0  0  0  0  0  0  0
    6.0580    0.9630   16.9720 H   0  0  0  0  0  0  0  0  0  0  0  0
    6.9610    2.9330   13.0160 H   0  0  0  0  0  0  0  0  0  0  0  0
    7.1970   -8.2030   19.9750 H   0  0  0  0  0  0  0  0  0  0  0  0
    7.3790    3.4810   10.6240 H   0  0  0  0  0  0  0  0  0  0  0  0
    8.0110    1.6890    9.0260 H   0  0  0  0  0  0  0  0  0  0  0  0
    9.5640   -8.9290   20.0220 H   0  0  0  0  0  0  0  0  0  0  0  0
    8.3370   -0.6390    9.8320 H   0  0  0  0  0  0  0  0  0  0  0  0
   11.2560   -7.7830   18.6230 H   0  0  0  0  0  0  0  0  0  0  0  0
    7.9860   -1.1910   12.2330 H   0  0  0  0  0  0  0  0  0  0  0  0
    7.7150   -3.7800   17.6590 H   0  0  0  0  0  0  0  0  0  0  0  0
    4.0860   -3.1580   14.9690 H   0  0  0  0  0  0  0  0  0  0  0  0
    8.7250   -3.5280   16.1510 H   0  0  0  0  0  0  0  0  0  0  0  0
   11.8740   -5.9900   17.2040 H   0  0  0  0  0  0  0  0  0  0  0  0
   10.7310   -4.6160   17.0470 H   0  0  0  0  0  0  0  0  0  0  0  0
   10.7310   -5.9250   15.7890 H   0  0  0  0  0  0  0  0  0  0  0  0
    7.1010    5.3000    4.9510 H   0  0  0  0  0  0  0  0  0  0  0  0
    6.5870    3.7620    6.8520 H   0  0  0  0  0  0  0  0  0  0  0  0
    1.8590   -7.3450   14.6460 H   0  0  0  0  0  0  0  0  0  0  0  0
    2.3290   -8.7490   16.6570 H   0  0  0  0  0  0  0  0  0  0  0  0
    3.0530   -7.6630   18.7750 H   0  0  0  0  0  0  0  0  0  0  0  0
    3.3680   -5.2050   18.8720 H   0  0  0  0  0  0  0  0  0  0  0  0
    2.1820   -4.8820   14.7400 H   0  0  0  0  0  0  0  0  0  0  0  0
    2.0780   -2.8850   16.5370 H   0  0  0  0  0  0  0  0  0  0  0  0
    3.1630   -3.1010   17.9510 H   0  0  0  0  0  0  0  0  0  0  0  0
    4.0130   -1.0970   17.2630 H   0  0  0  0  0  0  0  0  0  0  0  0
    3.3000   -0.9270   15.5990 H   0  0  0  0  0  0  0  0  0  0  0  0
    6.3270   -0.9720   16.3280 H   0  0  0  0  0  0  0  0  0  0  0  0
    5.8940   -1.3380   13.8590 H   0  0  0  0  0  0  0  0  0  0  0  0
    2.2440    0.3670   11.6060 H   0  0  0  0  0  0  0  0  0  0  0  0
    7.0040    1.4090   14.8240 H   0  0  0  0  0  0  0  0  0  0  0  0
    7.9060   -0.1230   14.6570 H   0  0  0  0  0  0  0  0  0  0  0  0
    3.0400    0.8680    9.4000 H   0  0  0  0  0  0  0  0  0  0  0  0
    4.7680    0.9750    9.9840 H   0  0  0  0  0  0  0  0  0  0  0  0
    5.6500    2.2250    8.5020 H   0  0  0  0  0  0  0  0  0  0  0  0
    6.2350    6.7230    4.2470 H   0  0  0  0  0  0  0  0  0  0  0  0
    3.5690    6.7100    7.8460 H   0  0  0  0  0  0  0  0  0  0  0  0
    2.6250    5.1880    9.5340 H   0  0  0  0  0  0  0  0  0  0  0  0
    5.3390    5.1850    4.5850 H   0  0  0  0  0  0  0  0  0  0  0  0
  1  3  1  0  0  0  0
  1  4  2  0  0  0  0
  1 16  1  0  0  0  0
  2  5  2  0  0  0  0
  2 26  1  0  0  0  0
  2 48  1  0  0  0  0
  3 23  1  0  0  0  0
  4  7  1  0  0  0  0
  4 18  1  0  0  0  0
  6 24  2  0  0  0  0
  7  9  2  0  0  0  0
  7 58  1  0  0  0  0
  8 24  1  0  0  0  0
  8 25  1  0  0  0  0
  8 54  1  0  0  0  0
  9 13  1  0  0  0  0
  9 61  1  0  0  0  0
 10 14  2  0  0  0  0
 10 22  1  0  0  0  0
 10 40  1  0  0  0  0
 11 36  1  0  0  0  0
 11 37  1  0  0  0  0
 11 55  1  0  0  0  0
 12 35  1  0  0  0  0
 12 56  1  0  0  0  0
 13 16  2  0  0  0  0
 13 63  1  0  0  0  0
 14 17  1  0  0  0  0
 14 57  1  0  0  0  0
 15 37  2  0  0  0  0
 16 20  1  0  0  0  0
 17 19  2  0  0  0  0
 17 59  1  0  0  0  0
 18 51  1  0  0  0  0
 18 52  1  0  0  0  0
 18 53  1  0  0  0  0
 19 21  1  0  0  0  0
 19 60  1  0  0  0  0
 20 68  1  0  0  0  0
 20 69  1  0  0  0  0
 20 70  1  0  0  0  0
 21 22  2  0  0  0  0
 21 62  1  0  0  0  0
 22 64  1  0  0  0  0
 23 24  1  0  0  0  0
 23 65  1  0  0  0  0
 23 67  1  0  0  0  0
 25 33  1  0  0  0  0
 25 34  1  0  0  0  0
 25 66  1  6  0  0  0
 26 71  1  0  0  0  0
 26 90  1  0  0  0  0
 26 93  1  0  0  0  0
 27 28  2  0  0  0  0
 27 32  1  0  0  0  0
 27 73  1  0  0  0  0
 28 29  1  0  0  0  0
 28 74  1  0  0  0  0
 29 30  2  0  0  0  0
 29 75  1  0  0  0  0
 30 31  1  0  0  0  0
 30 76  1  0  0  0  0
 31 32  2  0  0  0  0
 31 33  1  0  0  0  0
 32 77  1  0  0  0  0
 33 78  1  0  0  0  0
 33 79  1  0  0  0  0
 34 35  1  0  0  0  0
 34 80  1  0  0  0  0
 34 81  1  0  0  0  0
 35 36  1  0  0  0  0
 35 82  1  1  0  0  0
 36 40  1  0  0  0  0
 36 83  1  6  0  0  0
 37 38  1  0  0  0  0
 38 39  1  0  0  0  0
 38 44  1  0  0  0  0
 38 84  1  6  0  0  0
 39 41  1  0  0  0  0
 40 85  1  0  0  0  0
 40 86  1  0  0  0  0
 41 42  2  0  0  0  0
 41 43  1  0  0  0  0
 43 44  1  0  0  0  0
 43 45  1  0  0  0  0
 44 87  1  0  0  0  0
 44 88  1  0  0  0  0
 45 46  2  0  0  0  0
 45 50  1  0  0  0  0
 46 47  1  0  0  0  0
 46 89  1  0  0  0  0
 47 48  2  0  0  0  0
 47 72  1  0  0  0  0
 48 49  1  0  0  0  0
 49 50  2  0  0  0  0
 49 91  1  0  0  0  0
 50 92  1  0  0  0  0
M  END
>  <charge>
0

>  <KI_NM>
39.87

>  <number_of_rotatable_bonds>
17

>  <lm5_entropy_jk>
43.769413455775634

>  <ligand_crystal_conformation>
A

$$$$
