3rpv.pdb
 OpenBabel11252210453D

 41 43  0  0  0  0  0  0  0  0999 V2000
   65.9160  154.3910  -50.4910 N   0  0  0  0  0  0  0  0  0  0  0  0
   64.5540  154.8800  -48.6140 N   0  0  0  0  0  0  0  0  0  0  0  0
   67.4780  153.5220  -52.1020 N   0  0  0  0  0  0  0  0  0  0  0  0
   67.2070  148.6480  -46.2210 N   0  0  0  0  0  0  0  0  0  0  0  0
   62.0410  152.8460  -42.7030 N   0  0  0  0  0  0  0  0  0  0  0  0
   67.5400  152.7420  -49.7930 C   0  0  0  0  0  0  0  0  0  0  0  0
   67.0180  153.5490  -50.8290 C   0  0  0  0  0  0  0  0  0  0  0  0
   65.5960  154.1790  -49.1960 C   0  0  0  0  0  0  0  0  0  0  0  0
   63.8490  154.5640  -47.4160 C   0  0  0  0  0  0  0  0  0  0  0  0
   68.5270  151.7180  -49.9520 C   0  0  0  0  0  0  0  0  0  0  0  0
   68.8400  150.8120  -48.7920 C   0  0  0  0  0  0  0  0  0  0  0  0
   70.1890  150.5800  -48.4990 C   0  0  0  0  0  0  0  0  0  0  0  0
   70.5250  149.6510  -47.5080 C   0  0  0  0  0  0  0  0  0  0  0  0
   69.5380  148.9810  -46.7940 C   0  0  0  0  0  0  0  0  0  0  0  0
   68.1780  149.2480  -47.0630 C   0  0  0  0  0  0  0  0  0  0  0  0
   67.8280  150.1560  -48.0840 C   0  0  0  0  0  0  0  0  0  0  0  0
   64.0120  153.3870  -46.6720 C   0  0  0  0  0  0  0  0  0  0  0  0
   63.2520  153.1960  -45.5150 C   0  0  0  0  0  0  0  0  0  0  0  0
   62.3030  154.1410  -45.1100 C   0  0  0  0  0  0  0  0  0  0  0  0
   62.1470  155.3210  -45.8540 C   0  0  0  0  0  0  0  0  0  0  0  0
   62.9100  155.5360  -46.9940 C   0  0  0  0  0  0  0  0  0  0  0  0
   69.1160  151.5510  -51.0190 O   0  0  0  0  0  0  0  0  0  0  0  0
   60.0940  153.0750  -44.4280 O   0  0  0  0  0  0  0  0  0  0  0  0
   60.8370  155.0240  -43.0800 O   0  0  0  0  0  0  0  0  0  0  0  0
   66.6920  153.0110  -48.3160 S   0  0  0  0  0  0  0  0  0  0  0  0
   61.2060  153.8110  -43.8240 S   0  0  0  0  0  0  0  0  0  0  0  0
   63.9930  155.4950  -49.2620 H   0  0  0  0  0  0  0  0  0  0  0  0
   67.0820  154.1350  -52.8380 H   0  0  0  0  0  0  0  0  0  0  0  0
   68.2760  152.9130  -52.3390 H   0  0  0  0  0  0  0  0  0  0  0  0
   66.2180  148.7240  -46.5120 H   0  0  0  0  0  0  0  0  0  0  0  0
   67.4480  147.6810  -45.9310 H   0  0  0  0  0  0  0  0  0  0  0  0
   62.1470  151.8240  -42.9630 H   0  0  0  0  0  0  0  0  0  0  0  0
   61.8780  152.9570  -41.6930 H   0  0  0  0  0  0  0  0  0  0  0  0
   70.9720  151.1050  -49.0480 H   0  0  0  0  0  0  0  0  0  0  0  0
   71.5660  149.4250  -47.2940 H   0  0  0  0  0  0  0  0  0  0  0  0
   69.8050  148.2490  -46.0280 H   0  0  0  0  0  0  0  0  0  0  0  0
   66.7740  150.3200  -48.3080 H   0  0  0  0  0  0  0  0  0  0  0  0
   64.6930  152.5880  -46.9690 H   0  0  0  0  0  0  0  0  0  0  0  0
   63.4250  152.2800  -44.9390 H   0  0  0  0  0  0  0  0  0  0  0  0
   61.4210  156.0920  -45.5630 H   0  0  0  0  0  0  0  0  0  0  0  0
   62.7620  156.4470  -47.5760 H   0  0  0  0  0  0  0  0  0  0  0  0
  1  8  2  0  0  0  0
  2  9  1  0  0  0  0
  2 27  1  0  0  0  0
  3  7  1  0  0  0  0
  3 28  1  0  0  0  0
  3 29  1  0  0  0  0
  4 30  1  0  0  0  0
  4 31  1  0  0  0  0
  5 32  1  0  0  0  0
  5 33  1  0  0  0  0
  6 25  1  0  0  0  0
  7  1  1  0  0  0  0
  7  6  2  0  0  0  0
  8  2  1  0  0  0  0
  8 25  1  0  0  0  0
  9 21  2  0  0  0  0
  9 17  1  0  0  0  0
 10  6  1  0  0  0  0
 10 11  1  0  0  0  0
 11 12  2  0  0  0  0
 11 16  1  0  0  0  0
 12 13  1  0  0  0  0
 12 34  1  0  0  0  0
 13 14  2  0  0  0  0
 13 35  1  0  0  0  0
 14 36  1  0  0  0  0
 15 14  1  0  0  0  0
 15  4  1  0  0  0  0
 16 15  2  0  0  0  0
 16 37  1  0  0  0  0
 17 18  2  0  0  0  0
 17 38  1  0  0  0  0
 18 19  1  0  0  0  0
 18 39  1  0  0  0  0
 19 26  1  0  0  0  0
 20 19  2  0  0  0  0
 20 40  1  0  0  0  0
 21 20  1  0  0  0  0
 21 41  1  0  0  0  0
 22 10  2  0  0  0  0
 23 26  2  0  0  0  0
 26 24  2  0  0  0  0
 26  5  1  0  0  0  0
M  END
>  <lm5_entropy_jk>
21.154920599914565

>  <number_of_rotatable_bonds>
5

>  <IC50_NM>
70

>  <charge>
0

$$$$
