2ZQ2
 OpenBabel11252210453D

 67 69  0  0  1  0  0  0  0  0999 V2000
    2.4150   20.8830   18.6280 N   0  0  0  0  0  0  0  0  0  0  0  0
    2.1440   22.8850   15.4180 N   0  3  0  0  0  0  0  0  0  0  0  0
    0.6080   17.7040   19.5500 N   0  0  0  0  0  0  0  0  0  0  0  0
   -1.6710   12.4570   14.9560 N   0  3  0  0  0  0  0  0  0  0  0  0
   -2.6850   14.3530   14.0250 N   0  0  0  0  0  0  0  0  0  0  0  0
    2.2550   19.4910   19.1150 C   0  0  1  0  0  0  0  0  0  0  0  0
    3.1110   19.3870   20.4050 C   0  0  0  0  0  0  0  0  0  0  0  0
    3.4050   20.8450   20.8290 C   0  0  0  0  0  0  0  0  0  0  0  0
    3.2730   21.6730   19.5380 C   0  0  0  0  0  0  0  0  0  0  0  0
    2.3630   22.6740   16.9490 C   0  0  0  0  0  0  0  0  0  0  0  0
    0.7760   19.0590   19.3290 C   0  0  0  0  0  0  0  0  0  0  0  0
    1.9250   21.3050   17.4000 C   0  0  0  0  0  0  0  0  0  0  0  0
   -2.0840   13.7530   15.0890 C   0  0  0  0  0  0  0  0  0  0  0  0
   -0.7200   17.0490   19.7180 C   0  0  0  0  0  0  0  0  0  0  0  0
   -1.0690   16.1670   18.5410 C   0  0  0  0  0  0  0  0  0  0  0  0
   -0.9830   14.7710   18.6190 C   0  0  0  0  0  0  0  0  0  0  0  0
   -1.3080   13.9710   17.5040 C   0  0  0  0  0  0  0  0  0  0  0  0
   -1.7190   14.5710   16.2870 C   0  0  0  0  0  0  0  0  0  0  0  0
   -1.7990   15.9840   16.2350 C   0  0  0  0  0  0  0  0  0  0  0  0
   -1.4740   16.7650   17.3490 C   0  0  0  0  0  0  0  0  0  0  0  0
    3.2060   23.1470   13.1620 C   0  0  0  0  0  0  0  0  0  0  0  0
    4.5080   23.3580   12.3380 C   0  0  0  0  0  0  0  0  0  0  0  0
    5.6810   23.9770   13.1450 C   0  0  0  0  0  0  0  0  0  0  0  0
    6.7640   22.9370   13.5520 C   0  0  0  0  0  0  0  0  0  0  0  0
    6.3480   21.9450   14.6740 C   0  0  0  0  0  0  0  0  0  0  0  0
    5.3290   20.8740   14.2010 C   0  0  0  0  0  0  0  0  0  0  0  0
    3.8670   21.1560   14.6490 C   0  0  0  0  0  0  0  0  0  0  0  0
    3.4130   22.6430   14.6110 C   0  0  0  0  0  0  0  0  0  0  0  0
   -0.1750   19.8280   19.3350 O   0  0  0  0  0  0  0  0  0  0  0  0
    1.2330   20.6040   16.6840 O   0  0  0  0  0  0  0  0  0  0  0  0
    2.6310   18.8070   18.3450 H   0  0  0  0  0  0  0  0  0  0  0  0
    4.0390   18.8300   20.2110 H   0  0  0  0  0  0  0  0  0  0  0  0
    2.5610   18.8560   21.1940 H   0  0  0  0  0  0  0  0  0  0  0  0
    2.6490   21.1860   21.5550 H   0  0  0  0  0  0  0  0  0  0  0  0
    4.3850   20.9760   21.3130 H   0  0  0  0  0  0  0  0  0  0  0  0
    2.8320   22.6620   19.7470 H   0  0  0  0  0  0  0  0  0  0  0  0
    4.2650   21.8250   19.0840 H   0  0  0  0  0  0  0  0  0  0  0  0
    1.7590   23.3800   17.5240 H   0  0  0  0  0  0  0  0  0  0  0  0
    3.4140   22.7950   17.2030 H   0  0  0  0  0  0  0  0  0  0  0  0
    1.4010   22.2490   15.0760 H   0  0  0  0  0  0  0  0  0  0  0  0
    1.7900   23.8360   15.2110 H   0  0  0  0  0  0  0  0  0  0  0  0
    1.4430   17.1250   19.5710 H   0  0  0  0  0  0  0  0  0  0  0  0
   -0.7360   16.4550   20.6390 H   0  0  0  0  0  0  0  0  0  0  0  0
   -1.5080   17.8090   19.8350 H   0  0  0  0  0  0  0  0  0  0  0  0
   -0.6650   14.3110   19.5560 H   0  0  0  0  0  0  0  0  0  0  0  0
   -1.2440   12.8890   17.6060 H   0  0  0  0  0  0  0  0  0  0  0  0
   -2.1010   16.5110   15.3350 H   0  0  0  0  0  0  0  0  0  0  0  0
   -1.5330   17.8510   17.2900 H   0  0  0  0  0  0  0  0  0  0  0  0
    5.3260   24.5430   14.0170 H   0  0  0  0  0  0  0  0  0  0  0  0
    6.1680   24.7360   12.5130 H   0  0  0  0  0  0  0  0  0  0  0  0
    7.6530   23.4880   13.8940 H   0  0  0  0  0  0  0  0  0  0  0  0
    7.1080   22.3790   12.6700 H   0  0  0  0  0  0  0  0  0  0  0  0
    5.9970   22.4780   15.5660 H   0  0  0  0  0  0  0  0  0  0  0  0
    7.2560   21.4240   15.0110 H   0  0  0  0  0  0  0  0  0  0  0  0
    5.6320   19.8930   14.5970 H   0  0  0  0  0  0  0  0  0  0  0  0
    5.3800   20.7330   13.1150 H   0  0  0  0  0  0  0  0  0  0  0  0
    3.1740   20.5460   14.0560 H   0  0  0  0  0  0  0  0  0  0  0  0
    3.7820   20.7720   15.6710 H   0  0  0  0  0  0  0  0  0  0  0  0
    4.2020   23.2540   15.0620 H   0  0  0  0  0  0  0  0  0  0  0  0
   -3.1200   13.7140   13.3560 H   0  0  0  0  0  0  0  0  0  0  0  0
   -3.1700   15.2320   14.1760 H   0  0  0  0  0  0  0  0  0  0  0  0
    4.2820   24.0040   11.4750 H   0  0  0  0  0  0  0  0  0  0  0  0
    4.8160   22.4090   11.8940 H   0  0  0  0  0  0  0  0  0  0  0  0
    2.5340   22.4640   12.6210 H   0  0  0  0  0  0  0  0  0  0  0  0
    2.6750   24.1100   13.1880 H   0  0  0  0  0  0  0  0  0  0  0  0
   -1.2170   11.9870   15.7370 H   0  0  0  0  0  0  0  0  0  0  0  0
   -2.1680   11.8660   14.2900 H   0  0  0  0  0  0  0  0  0  0  0  0
  1  6  1  0  0  0  0
  1  9  1  0  0  0  0
  1 12  1  0  0  0  0
  2 10  1  0  0  0  0
  2 28  1  0  0  0  0
  2 40  1  0  0  0  0
  2 41  1  0  0  0  0
  3 11  1  0  0  0  0
  3 14  1  0  0  0  0
  3 42  1  0  0  0  0
  4 13  2  0  0  0  0
  4 66  1  0  0  0  0
  4 67  1  0  0  0  0
  5 13  1  0  0  0  0
  5 60  1  0  0  0  0
  5 61  1  0  0  0  0
  6  7  1  0  0  0  0
  6 11  1  0  0  0  0
  6 31  1  6  0  0  0
  7  8  1  0  0  0  0
  7 32  1  0  0  0  0
  7 33  1  0  0  0  0
  8  9  1  0  0  0  0
  8 34  1  0  0  0  0
  8 35  1  0  0  0  0
  9 36  1  0  0  0  0
  9 37  1  0  0  0  0
 10 12  1  0  0  0  0
 10 38  1  0  0  0  0
 10 39  1  0  0  0  0
 11 29  2  0  0  0  0
 12 30  2  0  0  0  0
 13 18  1  0  0  0  0
 14 15  1  0  0  0  0
 14 43  1  0  0  0  0
 14 44  1  0  0  0  0
 15 16  2  0  0  0  0
 15 20  1  0  0  0  0
 16 17  1  0  0  0  0
 16 45  1  0  0  0  0
 17 18  2  0  0  0  0
 17 46  1  0  0  0  0
 18 19  1  0  0  0  0
 19 20  2  0  0  0  0
 19 47  1  0  0  0  0
 20 48  1  0  0  0  0
 21 22  1  0  0  0  0
 21 28  1  0  0  0  0
 21 64  1  0  0  0  0
 21 65  1  0  0  0  0
 22 23  1  0  0  0  0
 22 62  1  0  0  0  0
 22 63  1  0  0  0  0
 23 24  1  0  0  0  0
 23 49  1  0  0  0  0
 23 50  1  0  0  0  0
 24 25  1  0  0  0  0
 24 51  1  0  0  0  0
 24 52  1  0  0  0  0
 25 26  1  0  0  0  0
 25 53  1  0  0  0  0
 25 54  1  0  0  0  0
 26 27  1  0  0  0  0
 26 55  1  0  0  0  0
 26 56  1  0  0  0  0
 27 28  1  0  0  0  0
 27 57  1  0  0  0  0
 27 58  1  0  0  0  0
 28 59  1  0  0  0  0
M  CHG  2   2   1   4   1
M  END
>  <number_of_rotatable_bonds>
9

>  <lm5_entropy_jk>
23.575177463858182

>  <deltaG_kcalmol>
-8.96

>  <charge>
2

$$$$
