2ZQ2
 OpenBabel11252210453D

 67 69  0  0  1  0  0  0  0  0999 V2000
    2.5040   20.6570   18.4560 N   0  0  0  0  0  0  0  0  0  0  0  0
    2.4700   22.0650   14.9430 N   0  3  0  0  0  0  0  0  0  0  0  0
    0.7930   17.5120   19.5570 N   0  0  0  0  0  0  0  0  0  0  0  0
   -1.5750   12.3840   14.9650 N   0  3  0  0  0  0  0  0  0  0  0  0
   -2.6050   14.2640   13.9790 N   0  0  0  0  0  0  0  0  0  0  0  0
    2.3930   19.3420   19.1340 C   0  0  1  0  0  0  0  0  0  0  0  0
    3.1480   19.4920   20.4840 C   0  0  0  0  0  0  0  0  0  0  0  0
    3.2300   21.0190   20.7310 C   0  0  0  0  0  0  0  0  0  0  0  0
    3.1500   21.6600   19.3310 C   0  0  0  0  0  0  0  0  0  0  0  0
    2.4820   22.1590   16.5030 C   0  0  0  0  0  0  0  0  0  0  0  0
    0.9280   18.8660   19.3110 C   0  0  0  0  0  0  0  0  0  0  0  0
    2.1030   20.8470   17.1400 C   0  0  0  0  0  0  0  0  0  0  0  0
   -1.9700   13.6880   15.0460 C   0  0  0  0  0  0  0  0  0  0  0  0
   -0.5230   16.8380   19.7430 C   0  0  0  0  0  0  0  0  0  0  0  0
   -0.9120   16.0180   18.5340 C   0  0  0  0  0  0  0  0  0  0  0  0
   -0.8830   14.6230   18.5820 C   0  0  0  0  0  0  0  0  0  0  0  0
   -1.2260   13.8650   17.4530 C   0  0  0  0  0  0  0  0  0  0  0  0
   -1.6090   14.4980   16.2460 C   0  0  0  0  0  0  0  0  0  0  0  0
   -1.6530   15.9120   16.2180 C   0  0  0  0  0  0  0  0  0  0  0  0
   -1.2980   16.6580   17.3530 C   0  0  0  0  0  0  0  0  0  0  0  0
    3.6770   21.5900   12.7950 C   0  0  0  0  0  0  0  0  0  0  0  0
    4.9470   21.8460   11.9190 C   0  0  0  0  0  0  0  0  0  0  0  0
    6.0080   22.8020   12.5310 C   0  0  0  0  0  0  0  0  0  0  0  0
    7.1840   22.0560   13.2220 C   0  0  0  0  0  0  0  0  0  0  0  0
    6.8230   21.4190   14.5860 C   0  0  0  0  0  0  0  0  0  0  0  0
    5.9140   20.1770   14.4460 C   0  0  0  0  0  0  0  0  0  0  0  0
    4.4820   20.4700   14.9570 C   0  0  0  0  0  0  0  0  0  0  0  0
    3.8300   21.7330   14.3330 C   0  0  0  0  0  0  0  0  0  0  0  0
   -0.0430   19.6080   19.2870 O   0  0  0  0  0  0  0  0  0  0  0  0
    1.5340   19.9860   16.4940 O   0  0  0  0  0  0  0  0  0  0  0  0
    2.8620   18.5770   18.5020 H   0  0  0  0  0  0  0  0  0  0  0  0
    4.1560   19.0570   20.4160 H   0  0  0  0  0  0  0  0  0  0  0  0
    2.6210   18.9750   21.2990 H   0  0  0  0  0  0  0  0  0  0  0  0
    2.3690   21.3550   21.3310 H   0  0  0  0  0  0  0  0  0  0  0  0
    4.1350   21.3280   21.2790 H   0  0  0  0  0  0  0  0  0  0  0  0
    2.5700   22.5980   19.3580 H   0  0  0  0  0  0  0  0  0  0  0  0
    4.1620   21.8930   18.9610 H   0  0  0  0  0  0  0  0  0  0  0  0
    1.7340   22.8770   16.8480 H   0  0  0  0  0  0  0  0  0  0  0  0
    3.4650   22.4590   16.8610 H   0  0  0  0  0  0  0  0  0  0  0  0
    1.7940   21.3370   14.6530 H   0  0  0  0  0  0  0  0  0  0  0  0
    2.1170   22.9380   14.5090 H   0  0  0  0  0  0  0  0  0  0  0  0
    1.6400   16.9450   19.5290 H   0  0  0  0  0  0  0  0  0  0  0  0
   -0.4940   16.1930   20.6330 H   0  0  0  0  0  0  0  0  0  0  0  0
   -1.3140   17.5840   19.9230 H   0  0  0  0  0  0  0  0  0  0  0  0
   -0.5940   14.1240   19.5040 H   0  0  0  0  0  0  0  0  0  0  0  0
   -1.1980   12.7820   17.5370 H   0  0  0  0  0  0  0  0  0  0  0  0
   -1.9470   16.4560   15.3240 H   0  0  0  0  0  0  0  0  0  0  0  0
   -1.3210   17.7470   17.3170 H   0  0  0  0  0  0  0  0  0  0  0  0
    5.5560   23.5450   13.2000 H   0  0  0  0  0  0  0  0  0  0  0  0
    6.4330   23.4020   11.7140 H   0  0  0  0  0  0  0  0  0  0  0  0
    8.0030   22.7720   13.3810 H   0  0  0  0  0  0  0  0  0  0  0  0
    7.5940   21.2870   12.5510 H   0  0  0  0  0  0  0  0  0  0  0  0
    6.3920   22.1710   15.2600 H   0  0  0  0  0  0  0  0  0  0  0  0
    7.7470   21.1070   15.0800 H   0  0  0  0  0  0  0  0  0  0  0  0
    6.3540   19.3340   14.9960 H   0  0  0  0  0  0  0  0  0  0  0  0
    5.8880   19.8150   13.4100 H   0  0  0  0  0  0  0  0  0  0  0  0
    3.8360   19.6000   14.7900 H   0  0  0  0  0  0  0  0  0  0  0  0
    4.5510   20.5910   16.0440 H   0  0  0  0  0  0  0  0  0  0  0  0
    4.4910   22.5850   14.5280 H   0  0  0  0  0  0  0  0  0  0  0  0
   -3.0310   13.6260   13.3040 H   0  0  0  0  0  0  0  0  0  0  0  0
   -3.0420   15.1750   14.0960 H   0  0  0  0  0  0  0  0  0  0  0  0
    4.6110   22.2680   10.9610 H   0  0  0  0  0  0  0  0  0  0  0  0
    5.4160   20.8940   11.6340 H   0  0  0  0  0  0  0  0  0  0  0  0
    3.2760   20.5940   12.5600 H   0  0  0  0  0  0  0  0  0  0  0  0
    2.9070   22.2950   12.4480 H   0  0  0  0  0  0  0  0  0  0  0  0
   -0.9830   11.9820   15.6890 H   0  0  0  0  0  0  0  0  0  0  0  0
   -2.0620   11.7520   14.3300 H   0  0  0  0  0  0  0  0  0  0  0  0
  1  6  1  0  0  0  0
  1  9  1  0  0  0  0
  1 12  1  0  0  0  0
  2 10  1  0  0  0  0
  2 28  1  0  0  0  0
  2 40  1  0  0  0  0
  2 41  1  0  0  0  0
  3 11  1  0  0  0  0
  3 14  1  0  0  0  0
  3 42  1  0  0  0  0
  4 13  2  0  0  0  0
  4 66  1  0  0  0  0
  4 67  1  0  0  0  0
  5 13  1  0  0  0  0
  5 60  1  0  0  0  0
  5 61  1  0  0  0  0
  6  7  1  0  0  0  0
  6 11  1  0  0  0  0
  6 31  1  6  0  0  0
  7  8  1  0  0  0  0
  7 32  1  0  0  0  0
  7 33  1  0  0  0  0
  8  9  1  0  0  0  0
  8 34  1  0  0  0  0
  8 35  1  0  0  0  0
  9 36  1  0  0  0  0
  9 37  1  0  0  0  0
 10 12  1  0  0  0  0
 10 38  1  0  0  0  0
 10 39  1  0  0  0  0
 11 29  2  0  0  0  0
 12 30  2  0  0  0  0
 13 18  1  0  0  0  0
 14 15  1  0  0  0  0
 14 43  1  0  0  0  0
 14 44  1  0  0  0  0
 15 16  2  0  0  0  0
 15 20  1  0  0  0  0
 16 17  1  0  0  0  0
 16 45  1  0  0  0  0
 17 18  2  0  0  0  0
 17 46  1  0  0  0  0
 18 19  1  0  0  0  0
 19 20  2  0  0  0  0
 19 47  1  0  0  0  0
 20 48  1  0  0  0  0
 21 22  1  0  0  0  0
 21 28  1  0  0  0  0
 21 64  1  0  0  0  0
 21 65  1  0  0  0  0
 22 23  1  0  0  0  0
 22 62  1  0  0  0  0
 22 63  1  0  0  0  0
 23 24  1  0  0  0  0
 23 49  1  0  0  0  0
 23 50  1  0  0  0  0
 24 25  1  0  0  0  0
 24 51  1  0  0  0  0
 24 52  1  0  0  0  0
 25 26  1  0  0  0  0
 25 53  1  0  0  0  0
 25 54  1  0  0  0  0
 26 27  1  0  0  0  0
 26 55  1  0  0  0  0
 26 56  1  0  0  0  0
 27 28  1  0  0  0  0
 27 57  1  0  0  0  0
 27 58  1  0  0  0  0
 28 59  1  0  0  0  0
M  CHG  2   2   1   4   1
M  END
>  <number_of_rotatable_bonds>
9

>  <lm5_entropy_jk>
23.575177463858182

>  <deltaG_kcalmol>
-8.96

>  <charge>
2

$$$$
