1m2q
 OpenBabel11252210453D

 27 29  0  0  1  0  0  0  0  0999 V2000
   21.6310    8.4030   19.5120 N   0  3  0  0  0  0  0  0  0  0  0  0
   25.7020    3.8610   17.5530 C   0  0  0  0  0  0  0  0  0  0  0  0
   24.8820    5.0180   17.5980 C   0  0  0  0  0  0  0  0  0  0  0  0
   24.1690    5.2180   18.7970 C   0  0  0  0  0  0  0  0  0  0  0  0
   24.2120    4.3600   19.8850 C   0  0  0  0  0  0  0  0  0  0  0  0
   25.0340    3.2220   19.7890 C   0  0  0  0  0  0  0  0  0  0  0  0
   25.7850    2.9740   18.6470 C   0  0  0  0  0  0  0  0  0  0  0  0
   23.2370    7.2550   17.9660 C   0  0  0  0  0  0  0  0  0  0  0  0
   23.9300    7.1320   16.7440 C   0  0  0  0  0  0  0  0  0  0  0  0
   24.7710    5.9540   16.4800 C   0  0  0  0  0  0  0  0  0  0  0  0
   23.7750    8.1950   15.8170 C   0  0  0  0  0  0  0  0  0  0  0  0
   22.9020    9.2720   16.0770 C   0  0  0  0  0  0  0  0  0  0  0  0
   22.1910    9.3320   17.2630 C   0  0  0  0  0  0  0  0  0  0  0  0
   22.3500    8.3240   18.2420 C   0  0  0  0  0  0  0  0  0  0  0  0
   26.4560    3.5540   16.4850 O   0  0  0  0  0  0  0  0  0  0  0  0
   20.6650    9.1470   19.5810 O   0  5  0  0  0  0  0  0  0  0  0  0
   22.0340    7.7200   20.4380 O   0  0  0  0  0  0  0  0  0  0  0  0
   23.3470    6.3410   18.9780 O   0  0  0  0  0  0  0  0  0  0  0  0
   25.3330    5.7540   15.4100 O   0  0  0  0  0  0  0  0  0  0  0  0
   24.4860    8.0890   14.6760 O   0  0  0  0  0  0  0  0  0  0  0  0
   22.7940   10.0810   15.3500 H   0  0  0  0  0  0  0  0  0  0  0  0
   21.5060   10.1700   17.4550 H   0  0  0  0  0  0  0  0  0  0  0  0
   26.4200    2.0850   18.5870 H   0  0  0  0  0  0  0  0  0  0  0  0
   23.6270    4.5420   20.7900 H   0  0  0  0  0  0  0  0  0  0  0  0
   25.0710    2.5190   20.6300 H   0  0  0  0  0  0  0  0  0  0  0  0
   26.2160    4.0980   15.6420 H   0  0  0  0  0  0  0  0  0  0  0  0
   24.4340    8.9620   14.1280 H   0  0  0  0  0  0  0  0  0  0  0  0
  2  3  2  0  0  0  0
  2  7  1  0  0  0  0
  2 15  1  0  0  0  0
  3  4  1  0  0  0  0
  3 10  1  0  0  0  0
  4  5  2  0  0  0  0
  4 18  1  0  0  0  0
  5  6  1  0  0  0  0
  5 24  1  0  0  0  0
  6  7  2  0  0  0  0
  6 25  1  0  0  0  0
  7 23  1  0  0  0  0
  8  9  2  0  0  0  0
  8 14  1  0  0  0  0
  9 10  1  0  0  0  0
  9 11  1  0  0  0  0
 10 19  2  0  0  0  0
 11 12  2  0  0  0  0
 11 20  1  0  0  0  0
 12 13  1  0  0  0  0
 12 21  1  0  0  0  0
 13 14  2  0  0  0  0
 13 22  1  0  0  0  0
 14  1  1  0  0  0  0
 15 26  1  0  0  0  0
 16  1  1  0  0  0  0
 17  1  2  0  0  0  0
 18  8  1  0  0  0  0
 20 27  1  0  0  0  0
M  CHG  2   1   1  16  -1
M  END
>  <Ki_NM>
800

>  <charge>
0

>  <number_of_rotatable_bonds>
1

>  <lm5_entropy_jk>
14.133140156892344

$$$$
