5NY6
 OpenBabel11252210453D

 37 38  0  0  1  0  0  0  0  0999 V2000
   -3.6690    5.3570   11.7130 C   0  0  0  0  0  0  0  0  0  0  0  0
   -5.0970    4.0840   15.0230 C   0  0  0  0  0  0  0  0  0  0  0  0
   -5.1130    1.2030   15.3440 N   0  5  0  0  0  0  0  0  0  0  0  0
   -3.5170    2.8370   16.6420 O   0  0  0  0  0  0  0  0  0  0  0  0
   -4.3940    4.1090   13.8150 C   0  0  0  0  0  0  0  0  0  0  0  0
   -5.9840    2.7470   17.0670 O   0  0  0  0  0  0  0  0  0  0  0  0
   -4.4410    5.2340   12.9800 C   0  0  0  0  0  0  0  0  0  0  0  0
   -5.1940    6.3640   13.3490 C   0  0  0  0  0  0  0  0  0  0  0  0
   -5.8820    6.3550   14.5550 C   0  0  0  0  0  0  0  0  0  0  0  0
   -5.8390    5.2110   15.3690 C   0  0  0  0  0  0  0  0  0  0  0  0
   -4.1150    5.8550   10.6940 O   0  0  0  0  0  0  0  0  0  0  0  0
   -2.3180    4.9320   11.7610 N   0  0  0  0  0  0  0  0  0  0  0  0
   -1.2900    5.6660   10.9750 C   0  0  1  0  0  0  0  0  0  0  0  0
   -1.0940    7.1040   11.4570 C   0  0  0  0  0  0  0  0  0  0  0  0
   -1.2040    7.5710   12.7820 C   0  0  0  0  0  0  0  0  0  0  0  0
   -1.4690    6.7900   13.8780 O   0  0  0  0  0  0  0  0  0  0  0  0
   -1.0640    8.9360   13.1110 C   0  0  0  0  0  0  0  0  0  0  0  0
   -0.7660    8.0540   10.4740 C   0  0  0  0  0  0  0  0  0  0  0  0
   -0.7600    9.8460   12.1070 C   0  0  0  0  0  0  0  0  0  0  0  0
   -0.5970    9.4020   10.7870 C   0  0  0  0  0  0  0  0  0  0  0  0
    0.0350    4.9000   11.0040 C   0  0  0  0  0  0  0  0  0  0  0  0
   -6.7580    5.3320   16.8220 Cl  0  0  0  0  0  0  0  0  0  0  0  0
   -4.8770    2.6550   16.1100 S   0  0  0  0  0  0  0  0  0  0  0  0
   -3.7900    3.2550   13.4880 H   0  0  0  0  0  0  0  0  0  0  0  0
   -5.2340    7.2500   12.7090 H   0  0  0  0  0  0  0  0  0  0  0  0
   -6.4280    7.2470   14.8680 H   0  0  0  0  0  0  0  0  0  0  0  0
   -1.9560    4.3720   12.5510 H   0  0  0  0  0  0  0  0  0  0  0  0
   -1.6530    5.7080    9.9030 H   0  0  0  0  0  0  0  0  0  0  0  0
   -1.4870    5.8260   13.6450 H   0  0  0  0  0  0  0  0  0  0  0  0
   -1.1930    9.2730   14.1430 H   0  0  0  0  0  0  0  0  0  0  0  0
   -0.6290    7.7390    9.4330 H   0  0  0  0  0  0  0  0  0  0  0  0
   -0.6410   10.9090   12.3390 H   0  0  0  0  0  0  0  0  0  0  0  0
   -0.3370   10.1170   10.0020 H   0  0  0  0  0  0  0  0  0  0  0  0
   -4.1480    0.8970   14.9840 H   0  0  0  0  0  0  0  0  0  0  0  0
   -0.0940    3.8870   10.5600 H   0  0  0  0  0  0  0  0  0  0  0  0
    0.7830    5.4530   10.3840 H   0  0  0  0  0  0  0  0  0  0  0  0
    0.4410    4.8030   12.0320 H   0  0  0  0  0  0  0  0  0  0  0  0
  1  7  1  0  0  0  0
  1 11  2  0  0  0  0
  1 12  1  0  0  0  0
  2  5  2  0  0  0  0
  2 10  1  0  0  0  0
  2 23  1  0  0  0  0
  3 23  1  0  0  0  0
  4 23  2  0  0  0  0
  5  7  1  0  0  0  0
  6 23  2  0  0  0  0
  7  8  2  0  0  0  0
  8  9  1  0  0  0  0
  9 10  2  0  0  0  0
 12 13  1  0  0  0  0
 13 14  1  0  0  0  0
 13 21  1  0  0  0  0
 13 28  1  6  0  0  0
 14 15  2  0  0  0  0
 14 18  1  0  0  0  0
 15 16  1  0  0  0  0
 15 17  1  0  0  0  0
 17 19  2  0  0  0  0
 18 20  2  0  0  0  0
 19 20  1  0  0  0  0
 22 10  1  0  0  0  0
 24  5  1  0  0  0  0
 25  8  1  0  0  0  0
 26  9  1  0  0  0  0
 27 12  1  0  0  0  0
 29 16  1  0  0  0  0
 30 17  1  0  0  0  0
 31 18  1  0  0  0  0
 32 19  1  0  0  0  0
 33 20  1  0  0  0  0
 34  3  1  0  0  0  0
 35 21  1  0  0  0  0
 36 21  1  0  0  0  0
 37 21  1  0  0  0  0
M  CHG  1   3  -1
M  END
>  <deltaG_kcalmol>
-10.7

>  <number_of_rotatable_bonds>
5

>  <charge>
-1

>  <lm5_entropy_jk>
31.79279622482855

$$$$
