5QCP
 OpenBabel11252210453D

 85 88  0  0  1  0  0  0  0  0999 V2000
   30.6130    6.0210   15.8710 N   0  0  0  0  0  0  0  0  0  0  0  0
   31.7860    6.0430   15.0220 C   0  0  1  0  0  0  0  0  0  0  0  0
   32.8480    6.9430   15.6680 C   0  0  0  0  0  0  0  0  0  0  0  0
   32.2350    8.2060   16.2290 C   0  0  0  0  0  0  0  0  0  0  0  0
   32.1810    8.4170   17.6070 C   0  0  0  0  0  0  0  0  0  0  0  0
   31.5870    9.5690   18.1120 C   0  0  0  0  0  0  0  0  0  0  0  0
   31.0300   10.5140   17.2630 C   0  0  0  0  0  0  0  0  0  0  0  0
   31.0790   10.3010   15.8990 C   0  0  0  0  0  0  0  0  0  0  0  0
   31.6710    9.1570   15.3870 C   0  0  0  0  0  0  0  0  0  0  0  0
   31.5110    9.8650   19.4470 O   0  0  0  0  0  0  0  0  0  0  0  0
   31.8350    8.8390   20.3970 C   0  0  0  0  0  0  0  0  0  0  0  0
   30.7030    8.7710   21.3870 C   0  0  0  0  0  0  0  0  0  0  0  0
   29.5720    7.8680   20.9150 C   0  0  0  0  0  0  0  0  0  0  0  0
   28.6950    8.5350   19.9140 C   0  0  0  0  0  0  0  0  0  0  0  0
   27.5720    7.7040   19.7100 O   0  0  0  0  0  0  0  0  0  0  0  0
   27.4910    6.9820   18.5450 C   0  0  0  0  0  0  0  0  0  0  0  0
   28.4860    6.9250   17.5770 C   0  0  0  0  0  0  0  0  0  0  0  0
   28.2890    6.1450   16.4350 C   0  0  0  0  0  0  0  0  0  0  0  0
   27.1000    5.4350   16.2730 C   0  0  0  0  0  0  0  0  0  0  0  0
   26.1170    5.5090   17.2560 C   0  0  0  0  0  0  0  0  0  0  0  0
   26.3030    6.2810   18.3940 C   0  0  0  0  0  0  0  0  0  0  0  0
   24.9530    4.7730   17.0580 O   0  0  0  0  0  0  0  0  0  0  0  0
   23.7330    4.9770   17.9730 C   0  0  0  0  0  0  0  0  0  0  0  0
   23.8770    4.7180   19.4570 C   0  0  0  0  0  0  0  0  0  0  0  0
   24.7550    4.0070   19.8960 O   0  0  0  0  0  0  0  0  0  0  0  0
   22.9010    5.4140   20.3690 C   0  0  0  0  0  0  0  0  0  0  0  0
   29.3690    6.1130   15.4040 C   0  0  0  0  0  0  0  0  0  0  0  0
   29.1140    6.1680   14.2060 O   0  0  0  0  0  0  0  0  0  0  0  0
   32.3230    4.6400   14.7770 C   0  0  2  0  0  0  0  0  0  0  0  0
   33.5710    4.7340   14.0970 O   0  0  0  0  0  0  0  0  0  0  0  0
   31.3580    3.8170   13.9280 C   0  0  0  0  0  0  0  0  0  0  0  0
   31.9410    2.5040   13.6290 N   0  3  0  0  0  0  0  0  0  0  0  0
   31.1750    1.7590   12.6340 C   0  0  0  0  0  0  0  0  0  0  0  0
   31.1020    2.4610   11.2960 C   0  0  0  0  0  0  0  0  0  0  0  0
   32.2600    2.7510   10.5710 C   0  0  0  0  0  0  0  0  0  0  0  0
   32.2090    3.3930    9.3370 C   0  0  0  0  0  0  0  0  0  0  0  0
   30.9670    3.7250    8.8130 C   0  0  0  0  0  0  0  0  0  0  0  0
   29.8040    3.4410    9.5210 C   0  0  0  0  0  0  0  0  0  0  0  0
   29.8710    2.8120   10.7500 C   0  0  0  0  0  0  0  0  0  0  0  0
   33.4730    3.6950    8.5410 C   0  0  0  0  0  0  0  0  0  0  0  0
   33.9970    5.1060    8.7590 C   0  0  0  0  0  0  0  0  0  0  0  0
   34.5560    2.6830    8.7820 C   0  0  0  0  0  0  0  0  0  0  0  0
   30.7450    5.9313   16.8683 H   0  0  0  0  0  0  0  0  0  0  0  0
   31.5067    6.4763   14.0616 H   0  0  0  0  0  0  0  0  0  0  0  0
   33.5891    7.2128   14.9156 H   0  0  0  0  0  0  0  0  0  0  0  0
   33.3387    6.3958   16.4729 H   0  0  0  0  0  0  0  0  0  0  0  0
   32.6005    7.6857   18.2819 H   0  0  0  0  0  0  0  0  0  0  0  0
   30.5649   11.4031   17.6624 H   0  0  0  0  0  0  0  0  0  0  0  0
   30.6530   11.0310   15.2267 H   0  0  0  0  0  0  0  0  0  0  0  0
   31.6943    9.0025   14.3184 H   0  0  0  0  0  0  0  0  0  0  0  0
   31.9436    7.8810   19.8885 H   0  0  0  0  0  0  0  0  0  0  0  0
   32.7619    9.0913   20.9120 H   0  0  0  0  0  0  0  0  0  0  0  0
   30.3087    9.7760   21.5371 H   0  0  0  0  0  0  0  0  0  0  0  0
   31.0844    8.3945   22.3361 H   0  0  0  0  0  0  0  0  0  0  0  0
   30.0027    6.9745   20.4630 H   0  0  0  0  0  0  0  0  0  0  0  0
   28.9696    7.5752   21.7750 H   0  0  0  0  0  0  0  0  0  0  0  0
   28.3748    9.5069   20.2895 H   0  0  0  0  0  0  0  0  0  0  0  0
   29.2356    8.6616   18.9760 H   0  0  0  0  0  0  0  0  0  0  0  0
   29.4040    7.4790   17.7064 H   0  0  0  0  0  0  0  0  0  0  0  0
   26.9427    4.8318   15.3910 H   0  0  0  0  0  0  0  0  0  0  0  0
   25.5346    6.3354   19.1509 H   0  0  0  0  0  0  0  0  0  0  0  0
   22.9465    4.3162   17.6085 H   0  0  0  0  0  0  0  0  0  0  0  0
   23.3901    6.0038   17.8462 H   0  0  0  0  0  0  0  0  0  0  0  0
   32.4731    4.1412   15.7345 H   0  0  0  0  0  0  0  0  0  0  0  0
   31.1600    4.3441   12.9947 H   0  0  0  0  0  0  0  0  0  0  0  0
   30.4232    3.6819   14.4720 H   0  0  0  0  0  0  0  0  0  0  0  0
   32.8788    2.6394   13.2792 H   0  0  0  0  0  0  0  0  0  0  0  0
   31.9842    1.9633   14.4810 H   0  0  0  0  0  0  0  0  0  0  0  0
   31.6458    0.7865   12.4904 H   0  0  0  0  0  0  0  0  0  0  0  0
   30.1626    1.6086   13.0088 H   0  0  0  0  0  0  0  0  0  0  0  0
   33.2199    2.4698   10.9784 H   0  0  0  0  0  0  0  0  0  0  0  0
   30.9034    4.2072    7.8487 H   0  0  0  0  0  0  0  0  0  0  0  0
   28.8438    3.7133    9.1084 H   0  0  0  0  0  0  0  0  0  0  0  0
   28.9621    2.5915   11.2901 H   0  0  0  0  0  0  0  0  0  0  0  0
   33.2043    3.6205    7.4873 H   0  0  0  0  0  0  0  0  0  0  0  0
   34.2770    4.8461   14.7378 H   0  0  0  0  0  0  0  0  0  0  0  0
   34.1597    1.6805    8.6206 H   0  0  0  0  0  0  0  0  0  0  0  0
   35.3808    2.8627    8.0925 H   0  0  0  0  0  0  0  0  0  0  0  0
   34.9141    2.7713    9.8077 H   0  0  0  0  0  0  0  0  0  0  0  0
   33.1963    5.8233    8.5792 H   0  0  0  0  0  0  0  0  0  0  0  0
   34.8188    5.2987    8.0693 H   0  0  0  0  0  0  0  0  0  0  0  0
   34.3520    5.2073    9.7846 H   0  0  0  0  0  0  0  0  0  0  0  0
   23.1132    5.1436   21.4034 H   0  0  0  0  0  0  0  0  0  0  0  0
   21.8858    5.1090   20.1150 H   0  0  0  0  0  0  0  0  0  0  0  0
   22.9971    6.4930   20.2485 H   0  0  0  0  0  0  0  0  0  0  0  0
  1  2  1  0  0  0  0
  1 27  1  0  0  0  0
  2  3  1  0  0  0  0
  2 29  1  0  0  0  0
  2 44  1  6  0  0  0
  3  4  1  0  0  0  0
  4  5  2  0  0  0  0
  4  9  1  0  0  0  0
  5  6  1  0  0  0  0
  6  7  2  0  0  0  0
  6 10  1  0  0  0  0
  7  8  1  0  0  0  0
  8  9  2  0  0  0  0
 10 11  1  0  0  0  0
 11 12  1  0  0  0  0
 12 13  1  0  0  0  0
 13 14  1  0  0  0  0
 14 15  1  0  0  0  0
 15 16  1  0  0  0  0
 16 17  2  0  0  0  0
 16 21  1  0  0  0  0
 17 18  1  0  0  0  0
 18 19  2  0  0  0  0
 18 27  1  0  0  0  0
 19 20  1  0  0  0  0
 20 21  2  0  0  0  0
 20 22  1  0  0  0  0
 22 23  1  0  0  0  0
 23 24  1  0  0  0  0
 24 25  2  0  0  0  0
 24 26  1  0  0  0  0
 27 28  2  0  0  0  0
 29 30  1  0  0  0  0
 29 31  1  0  0  0  0
 29 64  1  1  0  0  0
 31 32  1  0  0  0  0
 32 33  1  0  0  0  0
 33 34  1  0  0  0  0
 34 35  2  0  0  0  0
 34 39  1  0  0  0  0
 35 36  1  0  0  0  0
 36 37  2  0  0  0  0
 36 40  1  0  0  0  0
 37 38  1  0  0  0  0
 38 39  2  0  0  0  0
 40 41  1  0  0  0  0
 40 42  1  0  0  0  0
 43  1  1  0  0  0  0
 45  3  1  0  0  0  0
 46  3  1  0  0  0  0
 47  5  1  0  0  0  0
 48  7  1  0  0  0  0
 49  8  1  0  0  0  0
 50  9  1  0  0  0  0
 51 11  1  0  0  0  0
 52 11  1  0  0  0  0
 53 12  1  0  0  0  0
 54 12  1  0  0  0  0
 55 13  1  0  0  0  0
 56 13  1  0  0  0  0
 57 14  1  0  0  0  0
 58 14  1  0  0  0  0
 59 17  1  0  0  0  0
 60 19  1  0  0  0  0
 61 21  1  0  0  0  0
 62 23  1  0  0  0  0
 63 23  1  0  0  0  0
 65 31  1  0  0  0  0
 66 31  1  0  0  0  0
 67 32  1  0  0  0  0
 68 32  1  0  0  0  0
 69 33  1  0  0  0  0
 70 33  1  0  0  0  0
 71 35  1  0  0  0  0
 72 37  1  0  0  0  0
 73 38  1  0  0  0  0
 74 39  1  0  0  0  0
 75 40  1  0  0  0  0
 76 30  1  0  0  0  0
 77 42  1  0  0  0  0
 78 42  1  0  0  0  0
 79 42  1  0  0  0  0
 80 41  1  0  0  0  0
 81 41  1  0  0  0  0
 82 41  1  0  0  0  0
 83 26  1  0  0  0  0
 84 26  1  0  0  0  0
 85 26  1  0  0  0  0
M  CHG  1  32   1
M  END
>  <IC50_NM>
34

>  <number_of_rotatable_bonds>
9

>  <lm5_entropy_jk>
41.486223211327754

>  <charge>
1

>  <old_name>
BACE_16

>  <xray_resolution>
2.45

$$$$
