5QCR
 OpenBabel11252210453D

 78 79  0  0  1  0  0  0  0  0999 V2000
   30.5240    5.9920   15.9140 N   0  0  0  0  0  0  0  0  0  0  0  0
   31.6130    5.9760   14.9350 C   0  0  2  0  0  0  0  0  0  0  0  0
   32.0720    4.5510   14.5510 C   0  0  1  0  0  0  0  0  0  0  0  0
   32.6200    3.8380   15.6610 O   0  0  0  0  0  0  0  0  0  0  0  0
   30.9480    3.7290   13.9300 C   0  0  0  0  0  0  0  0  0  0  0  0
   31.4500    2.7620   12.8550 C   0  0  1  0  0  0  0  0  0  0  0  0
   30.4910    1.6070   12.6650 C   0  0  0  0  0  0  0  0  0  0  0  0
   31.6380    3.4630   11.5260 C   0  0  0  0  0  0  0  0  0  0  0  0
   30.7720    4.2140   11.0880 O   0  0  0  0  0  0  0  0  0  0  0  0
   32.7810    3.2450   10.8910 N   0  0  0  0  0  0  0  0  0  0  0  0
   33.0680    3.8480    9.6210 C   0  0  0  0  0  0  0  0  0  0  0  0
   34.3720    3.4330    9.0860 C   0  0  0  0  0  0  0  0  0  0  0  0
   34.3450    3.3640    7.5750 C   0  0  0  0  0  0  0  0  0  0  0  0
   34.3270    4.7170    6.9210 C   0  0  0  0  0  0  0  0  0  0  0  0
   32.7560    6.8680   15.4480 C   0  0  0  0  0  0  0  0  0  0  0  0
   32.2410    8.1940   16.0030 C   0  0  0  0  0  0  0  0  0  0  0  0
   32.6090    8.6320   17.2670 C   0  0  0  0  0  0  0  0  0  0  0  0
   32.1270    9.8310   17.7780 C   0  0  0  0  0  0  0  0  0  0  0  0
   31.2650   10.6080   17.0320 C   0  0  0  0  0  0  0  0  0  0  0  0
   30.8840   10.1870   15.7750 C   0  0  0  0  0  0  0  0  0  0  0  0
   31.3640    8.9830   15.2640 C   0  0  0  0  0  0  0  0  0  0  0  0
   29.2560    6.2320   15.5540 C   0  0  0  0  0  0  0  0  0  0  0  0
   28.9540    6.3920   14.3790 O   0  0  0  0  0  0  0  0  0  0  0  0
   28.2310    6.4040   16.6310 C   0  0  0  0  0  0  0  0  0  0  0  0
   28.6160    7.1180   17.7580 C   0  0  0  0  0  0  0  0  0  0  0  0
   27.6600    7.3610   18.7450 C   0  0  0  0  0  0  0  0  0  0  0  0
   26.3840    6.9640   18.6350 N   0  0  0  0  0  0  0  0  0  0  0  0
   26.0260    6.3180   17.5280 C   0  0  0  0  0  0  0  0  0  0  0  0
   26.8960    6.0240   16.4720 C   0  0  0  0  0  0  0  0  0  0  0  0
   24.7210    5.9520   17.4920 O   0  0  0  0  0  0  0  0  0  0  0  0
   24.1920    5.4650   16.2530 C   0  0  0  0  0  0  0  0  0  0  0  0
   27.9980    8.0460   19.9270 N   0  0  0  0  0  0  0  0  0  0  0  0
   29.2220    8.8130   20.1190 C   0  0  0  0  0  0  0  0  0  0  0  0
   29.9640    8.3350   21.3570 C   0  0  0  0  0  0  0  0  0  0  0  0
   30.8030    7.1110   21.0820 C   0  0  0  0  0  0  0  0  0  0  0  0
   31.1040    6.2350   22.3120 C   0  0  0  0  0  0  0  0  0  0  0  0
   30.7344    5.8175   16.8863 H   0  0  0  0  0  0  0  0  0  0  0  0
   31.2302    6.4416   14.0268 H   0  0  0  0  0  0  0  0  0  0  0  0
   32.8588    4.6496   13.8031 H   0  0  0  0  0  0  0  0  0  0  0  0
   30.4609    3.1534   14.7171 H   0  0  0  0  0  0  0  0  0  0  0  0
   30.2193    4.4061   13.4843 H   0  0  0  0  0  0  0  0  0  0  0  0
   32.4128    2.3621   13.1732 H   0  0  0  0  0  0  0  0  0  0  0  0
   33.4689    2.6376   11.3128 H   0  0  0  0  0  0  0  0  0  0  0  0
   32.2913    3.5592    8.9129 H   0  0  0  0  0  0  0  0  0  0  0  0
   33.0598    4.9322    9.7334 H   0  0  0  0  0  0  0  0  0  0  0  0
   34.6223    2.4490    9.4826 H   0  0  0  0  0  0  0  0  0  0  0  0
   35.1319    4.1492    9.3985 H   0  0  0  0  0  0  0  0  0  0  0  0
   35.2316    2.8277    7.2369 H   0  0  0  0  0  0  0  0  0  0  0  0
   33.4589    2.8108    7.2637 H   0  0  0  0  0  0  0  0  0  0  0  0
   33.2879    6.3385   16.2385 H   0  0  0  0  0  0  0  0  0  0  0  0
   33.4456    7.0693   14.6282 H   0  0  0  0  0  0  0  0  0  0  0  0
   33.2805    8.0318   17.8630 H   0  0  0  0  0  0  0  0  0  0  0  0
   32.4284   10.1558   18.7629 H   0  0  0  0  0  0  0  0  0  0  0  0
   30.8910   11.5399   17.4297 H   0  0  0  0  0  0  0  0  0  0  0  0
   30.2117   10.7924   15.1852 H   0  0  0  0  0  0  0  0  0  0  0  0
   31.0519    8.6579   14.2825 H   0  0  0  0  0  0  0  0  0  0  0  0
   29.6290    7.4760   17.8678 H   0  0  0  0  0  0  0  0  0  0  0  0
   26.5519    5.5271   15.5770 H   0  0  0  0  0  0  0  0  0  0  0  0
   27.3458    8.0029   20.6970 H   0  0  0  0  0  0  0  0  0  0  0  0
   29.8634    8.6883   19.2466 H   0  0  0  0  0  0  0  0  0  0  0  0
   28.9717    9.8676   20.2340 H   0  0  0  0  0  0  0  0  0  0  0  0
   29.2357    8.0944   22.1315 H   0  0  0  0  0  0  0  0  0  0  0  0
   30.6110    9.1360   21.7145 H   0  0  0  0  0  0  0  0  0  0  0  0
   30.2755    6.4974   20.3517 H   0  0  0  0  0  0  0  0  0  0  0  0
   31.7491    7.4312   20.6457 H   0  0  0  0  0  0  0  0  0  0  0  0
   33.3283    4.3529   16.0545 H   0  0  0  0  0  0  0  0  0  0  0  0
   23.1189    5.3026   16.3543 H   0  0  0  0  0  0  0  0  0  0  0  0
   24.3757    6.1974   15.4669 H   0  0  0  0  0  0  0  0  0  0  0  0
   24.6790    4.5247   15.9946 H   0  0  0  0  0  0  0  0  0  0  0  0
   30.8753    0.9378   11.8952 H   0  0  0  0  0  0  0  0  0  0  0  0
   29.5172    1.9901   12.3600 H   0  0  0  0  0  0  0  0  0  0  0  0
   30.3892    1.0612   13.6030 H   0  0  0  0  0  0  0  0  0  0  0  0
   31.7118    5.3817   22.0110 H   0  0  0  0  0  0  0  0  0  0  0  0
   31.6455    6.8232   23.0529 H   0  0  0  0  0  0  0  0  0  0  0  0
   30.1679    5.8802   22.7432 H   0  0  0  0  0  0  0  0  0  0  0  0
   34.3080    4.5973    5.8378 H   0  0  0  0  0  0  0  0  0  0  0  0
   35.2200    5.2716    7.2094 H   0  0  0  0  0  0  0  0  0  0  0  0
   33.4403    5.2638    7.2418 H   0  0  0  0  0  0  0  0  0  0  0  0
  1  2  1  0  0  0  0
  1 22  1  0  0  0  0
  2  3  1  0  0  0  0
  2 15  1  0  0  0  0
  2 38  1  6  0  0  0
  3  4  1  0  0  0  0
  3  5  1  0  0  0  0
  3 39  1  6  0  0  0
  5  6  1  0  0  0  0
  6  7  1  0  0  0  0
  6  8  1  0  0  0  0
  6 42  1  1  0  0  0
  8  9  2  0  0  0  0
  8 10  1  0  0  0  0
 10 11  1  0  0  0  0
 11 12  1  0  0  0  0
 12 13  1  0  0  0  0
 13 14  1  0  0  0  0
 15 16  1  0  0  0  0
 16 17  2  0  0  0  0
 16 21  1  0  0  0  0
 17 18  1  0  0  0  0
 18 19  2  0  0  0  0
 19 20  1  0  0  0  0
 20 21  2  0  0  0  0
 22 23  2  0  0  0  0
 22 24  1  0  0  0  0
 24 25  2  0  0  0  0
 24 29  1  0  0  0  0
 25 26  1  0  0  0  0
 26 27  2  0  0  0  0
 26 32  1  0  0  0  0
 27 28  1  0  0  0  0
 28 29  2  0  0  0  0
 28 30  1  0  0  0  0
 30 31  1  0  0  0  0
 32 33  1  0  0  0  0
 33 34  1  0  0  0  0
 34 35  1  0  0  0  0
 35 36  1  0  0  0  0
 37  1  1  0  0  0  0
 40  5  1  0  0  0  0
 41  5  1  0  0  0  0
 43 10  1  0  0  0  0
 44 11  1  0  0  0  0
 45 11  1  0  0  0  0
 46 12  1  0  0  0  0
 47 12  1  0  0  0  0
 48 13  1  0  0  0  0
 49 13  1  0  0  0  0
 50 15  1  0  0  0  0
 51 15  1  0  0  0  0
 52 17  1  0  0  0  0
 53 18  1  0  0  0  0
 54 19  1  0  0  0  0
 55 20  1  0  0  0  0
 56 21  1  0  0  0  0
 57 25  1  0  0  0  0
 58 29  1  0  0  0  0
 59 32  1  0  0  0  0
 60 33  1  0  0  0  0
 61 33  1  0  0  0  0
 62 34  1  0  0  0  0
 63 34  1  0  0  0  0
 64 35  1  0  0  0  0
 65 35  1  0  0  0  0
 66  4  1  0  0  0  0
 67 31  1  0  0  0  0
 68 31  1  0  0  0  0
 69 31  1  0  0  0  0
 70  7  1  0  0  0  0
 71  7  1  0  0  0  0
 72  7  1  0  0  0  0
 73 36  1  0  0  0  0
 74 36  1  0  0  0  0
 75 36  1  0  0  0  0
 76 14  1  0  0  0  0
 77 14  1  0  0  0  0
 78 14  1  0  0  0  0
M  END
>  <IC50_NM>
770

>  <number_of_rotatable_bonds>
18

>  <lm5_entropy_jk>
47.176369789984406

>  <charge>
0

>  <old_name>
BACE_20

>  <xray_resolution>
2.2

$$$$
