5QCU
 OpenBabel11252210453D

 76 77  0  0  1  0  0  0  0  0999 V2000
   26.8160    7.0000   18.8260 S   0  0  0  0  0  0  0  0  0  0  0  0
   27.7540    7.0290   17.3050 C   0  0  0  0  0  0  0  0  0  0  0  0
   27.8680    5.6690   16.6280 C   0  0  2  0  0  0  0  0  0  0  0  0
   28.9170    5.8710   15.5400 C   0  0  0  0  0  0  0  0  0  0  0  0
   30.1900    5.6800   15.9050 N   0  0  0  0  0  0  0  0  0  0  0  0
   31.3120    5.9160   14.9940 C   0  0  1  0  0  0  0  0  0  0  0  0
   32.3210    6.8740   15.6580 C   0  0  0  0  0  0  0  0  0  0  0  0
   31.6480    8.0980   16.2980 C   0  0  1  0  0  0  0  0  0  0  0  0
   32.6120    8.9200   17.1930 C   0  0  0  0  0  0  0  0  0  0  0  0
   31.8760    9.9370   18.1320 C   0  0  0  0  0  0  0  0  0  0  0  0
   31.0250    9.2410   19.1630 C   0  0  0  0  0  0  0  0  0  0  0  0
   29.6380    9.1880   19.0260 C   0  0  0  0  0  0  0  0  0  0  0  0
   28.8380    8.5290   19.9600 C   0  0  0  0  0  0  0  0  0  0  0  0
   29.4520    7.9200   21.0400 C   0  0  0  0  0  0  0  0  0  0  0  0
   30.8230    7.9650   21.1880 C   0  0  0  0  0  0  0  0  0  0  0  0
   31.6030    8.6180   20.2540 C   0  0  0  0  0  0  0  0  0  0  0  0
   27.3320    8.4470   19.7830 C   0  0  0  0  0  0  0  0  0  0  0  0
   30.9990    8.9870   15.2310 C   0  0  0  0  0  0  0  0  0  0  0  0
   31.9580    4.6170   14.5340 C   0  0  1  0  0  0  0  0  0  0  0  0
   32.5590    3.9470   15.6420 O   0  0  0  0  0  0  0  0  0  0  0  0
   30.9560    3.6920   13.8670 C   0  0  0  0  0  0  0  0  0  0  0  0
   31.5910    2.7600   12.8470 C   0  0  1  0  0  0  0  0  0  0  0  0
   30.7240    1.5080   12.6480 C   0  0  0  0  0  0  0  0  0  0  0  0
   31.7450    3.4400   11.5020 C   0  0  0  0  0  0  0  0  0  0  0  0
   30.8410    4.1420   11.0590 O   0  0  0  0  0  0  0  0  0  0  0  0
   32.8920    3.2510   10.8620 N   0  0  0  0  0  0  0  0  0  0  0  0
   33.1670    3.8470    9.5330 C   0  0  0  0  0  0  0  0  0  0  0  0
   34.5020    3.4100    8.9880 C   0  0  0  0  0  0  0  0  0  0  0  0
   34.6300    3.4770    7.4590 C   0  0  0  0  0  0  0  0  0  0  0  0
   34.0720    4.7450    6.8450 C   0  0  0  0  0  0  0  0  0  0  0  0
   28.5940    6.2060   14.3790 O   0  0  0  0  0  0  0  0  0  0  0  0
   26.5330    5.2890   15.9870 C   0  0  0  0  0  0  0  0  0  0  0  0
   25.4280    7.1700   18.4880 O   0  0  0  0  0  0  0  0  0  0  0  0
   27.1720    5.8160   19.5580 O   0  0  0  0  0  0  0  0  0  0  0  0
   28.7590    7.3874   17.5278 H   0  0  0  0  0  0  0  0  0  0  0  0
   27.2791    7.7254   16.6140 H   0  0  0  0  0  0  0  0  0  0  0  0
   28.1879    4.9072   17.3389 H   0  0  0  0  0  0  0  0  0  0  0  0
   30.3843    5.3613   16.8435 H   0  0  0  0  0  0  0  0  0  0  0  0
   30.9170    6.4168   14.1101 H   0  0  0  0  0  0  0  0  0  0  0  0
   33.0235    7.2198   14.8997 H   0  0  0  0  0  0  0  0  0  0  0  0
   32.8704    6.3308   16.4269 H   0  0  0  0  0  0  0  0  0  0  0  0
   30.8484    7.7280   16.9397 H   0  0  0  0  0  0  0  0  0  0  0  0
   33.2925    9.4758   16.5479 H   0  0  0  0  0  0  0  0  0  0  0  0
   33.1934    8.2323   17.8071 H   0  0  0  0  0  0  0  0  0  0  0  0
   32.6213   10.5456   18.6441 H   0  0  0  0  0  0  0  0  0  0  0  0
   31.2423   10.5853   17.5268 H   0  0  0  0  0  0  0  0  0  0  0  0
   29.1727    9.6679   18.1777 H   0  0  0  0  0  0  0  0  0  0  0  0
   28.8518    7.4040   21.7748 H   0  0  0  0  0  0  0  0  0  0  0  0
   31.2881    7.4876   22.0378 H   0  0  0  0  0  0  0  0  0  0  0  0
   32.6757    8.6424   20.3769 H   0  0  0  0  0  0  0  0  0  0  0  0
   26.9928    9.3450   19.2666 H   0  0  0  0  0  0  0  0  0  0  0  0
   26.8626    8.4062   20.7659 H   0  0  0  0  0  0  0  0  0  0  0  0
   32.7386    4.8573   13.8121 H   0  0  0  0  0  0  0  0  0  0  0  0
   30.4759    3.0880   14.6369 H   0  0  0  0  0  0  0  0  0  0  0  0
   30.1973    4.2953   13.3685 H   0  0  0  0  0  0  0  0  0  0  0  0
   32.5745    2.4573   13.2065 H   0  0  0  0  0  0  0  0  0  0  0  0
   33.6033    2.6804   11.2962 H   0  0  0  0  0  0  0  0  0  0  0  0
   33.1626    4.9330    9.6260 H   0  0  0  0  0  0  0  0  0  0  0  0
   32.3828    3.5458    8.8384 H   0  0  0  0  0  0  0  0  0  0  0  0
   35.2703    4.0511    9.4203 H   0  0  0  0  0  0  0  0  0  0  0  0
   34.6872    2.3842    9.3065 H   0  0  0  0  0  0  0  0  0  0  0  0
   35.6868    3.4086    7.2010 H   0  0  0  0  0  0  0  0  0  0  0  0
   34.1095    2.6220    7.0275 H   0  0  0  0  0  0  0  0  0  0  0  0
   30.5296    9.8464   15.7098 H   0  0  0  0  0  0  0  0  0  0  0  0
   30.2443    8.4147   14.6916 H   0  0  0  0  0  0  0  0  0  0  0  0
   31.7615    9.3318   14.5325 H   0  0  0  0  0  0  0  0  0  0  0  0
   31.1941    0.8527   11.9147 H   0  0  0  0  0  0  0  0  0  0  0  0
   29.7370    1.8028   12.2915 H   0  0  0  0  0  0  0  0  0  0  0  0
   30.6250    0.9801   13.5965 H   0  0  0  0  0  0  0  0  0  0  0  0
   34.5229    4.9039    5.8654 H   0  0  0  0  0  0  0  0  0  0  0  0
   32.9915    4.6508    6.7364 H   0  0  0  0  0  0  0  0  0  0  0  0
   34.2997    5.5925    7.4916 H   0  0  0  0  0  0  0  0  0  0  0  0
   33.0088    3.1574   15.3325 H   0  0  0  0  0  0  0  0  0  0  0  0
   26.6246    4.3154   15.5056 H   0  0  0  0  0  0  0  0  0  0  0  0
   26.2613    6.0378   15.2429 H   0  0  0  0  0  0  0  0  0  0  0  0
   25.7610    5.2433   16.7552 H   0  0  0  0  0  0  0  0  0  0  0  0
  1  2  1  0  0  0  0
  1 17  1  0  0  0  0
  1 33  2  0  0  0  0
  1 34  2  0  0  0  0
  2  3  1  0  0  0  0
  3  4  1  0  0  0  0
  3 32  1  0  0  0  0
  3 37  1  1  0  0  0
  4  5  1  0  0  0  0
  4 31  2  0  0  0  0
  5  6  1  0  0  0  0
  6  7  1  0  0  0  0
  6 19  1  0  0  0  0
  6 39  1  6  0  0  0
  7  8  1  0  0  0  0
  8  9  1  0  0  0  0
  8 18  1  0  0  0  0
  8 42  1  1  0  0  0
  9 10  1  0  0  0  0
 10 11  1  0  0  0  0
 11 12  2  0  0  0  0
 11 16  1  0  0  0  0
 12 13  1  0  0  0  0
 13 14  2  0  0  0  0
 13 17  1  0  0  0  0
 14 15  1  0  0  0  0
 15 16  2  0  0  0  0
 19 20  1  0  0  0  0
 19 21  1  0  0  0  0
 19 53  1  6  0  0  0
 21 22  1  0  0  0  0
 22 23  1  0  0  0  0
 22 24  1  0  0  0  0
 22 56  1  1  0  0  0
 24 25  2  0  0  0  0
 24 26  1  0  0  0  0
 26 27  1  0  0  0  0
 27 28  1  0  0  0  0
 28 29  1  0  0  0  0
 29 30  1  0  0  0  0
 35  2  1  0  0  0  0
 36  2  1  0  0  0  0
 38  5  1  0  0  0  0
 40  7  1  0  0  0  0
 41  7  1  0  0  0  0
 43  9  1  0  0  0  0
 44  9  1  0  0  0  0
 45 10  1  0  0  0  0
 46 10  1  0  0  0  0
 47 12  1  0  0  0  0
 48 14  1  0  0  0  0
 49 15  1  0  0  0  0
 50 16  1  0  0  0  0
 51 17  1  0  0  0  0
 52 17  1  0  0  0  0
 54 21  1  0  0  0  0
 55 21  1  0  0  0  0
 57 26  1  0  0  0  0
 58 27  1  0  0  0  0
 59 27  1  0  0  0  0
 60 28  1  0  0  0  0
 61 28  1  0  0  0  0
 62 29  1  0  0  0  0
 63 29  1  0  0  0  0
 64 18  1  0  0  0  0
 65 18  1  0  0  0  0
 66 18  1  0  0  0  0
 67 23  1  0  0  0  0
 68 23  1  0  0  0  0
 69 23  1  0  0  0  0
 70 30  1  0  0  0  0
 71 30  1  0  0  0  0
 72 30  1  0  0  0  0
 73 20  1  0  0  0  0
 74 32  1  0  0  0  0
 75 32  1  0  0  0  0
 76 32  1  0  0  0  0
M  END
>  <IC50_NM>
260

>  <number_of_rotatable_bonds>
8

>  <lm5_entropy_jk>
41.22412348393314

>  <charge>
0

>  <old_name>
BACE_19

>  <xray_resolution>
1.95

$$$$
