5QCV
 OpenBabel11252210453D

 81 83  0  0  1  0  0  0  0  0999 V2000
   27.9640    6.7990   17.4620 N   0  0  0  0  0  0  0  0  0  0  0  0
   27.9250    5.7280   16.4610 C   0  0  2  0  0  0  0  0  0  0  0  0
   29.0850    5.8570   15.4640 C   0  0  0  0  0  0  0  0  0  0  0  0
   30.3320    5.8260   15.9650 N   0  0  0  0  0  0  0  0  0  0  0  0
   31.5040    5.9400   15.0810 C   0  0  1  0  0  0  0  0  0  0  0  0
   32.5730    6.8380   15.7150 C   0  0  0  0  0  0  0  0  0  0  0  0
   32.0550    8.1250   16.3210 C   0  0  0  0  0  0  0  0  0  0  0  0
   32.1810    8.3390   17.6870 C   0  0  0  0  0  0  0  0  0  0  0  0
   31.7240    9.5180   18.2570 C   0  0  0  0  0  0  0  0  0  0  0  0
   31.1430   10.5070   17.4790 C   0  0  0  0  0  0  0  0  0  0  0  0
   31.0220   10.2980   16.1130 C   0  0  0  0  0  0  0  0  0  0  0  0
   31.4830    9.1210   15.5390 C   0  0  0  0  0  0  0  0  0  0  0  0
   31.9490    9.5540   19.6090 O   0  0  0  0  0  0  0  0  0  0  0  0
   31.0140   10.1940   20.4120 C   0  0  0  0  0  0  0  0  0  0  0  0
   30.6350    9.2330   21.4860 C   0  0  0  0  0  0  0  0  0  0  0  0
   29.2320    8.7940   21.3100 C   0  0  0  0  0  0  0  0  0  0  0  0
   29.1010    7.6770   20.3300 C   0  0  0  0  0  0  0  0  0  0  0  0
   27.6850    7.5670   19.7660 C   0  0  0  0  0  0  0  0  0  0  0  0
   27.6250    6.4890   18.7350 C   0  0  0  0  0  0  0  0  0  0  0  0
   27.3100    5.3520   19.0570 O   0  0  0  0  0  0  0  0  0  0  0  0
   32.1180    4.5620   14.7780 C   0  0  2  0  0  0  0  0  0  0  0  0
   33.3090    4.7490   14.0120 O   0  0  0  0  0  0  0  0  0  0  0  0
   31.1700    3.6320   14.0170 C   0  0  0  0  0  0  0  0  0  0  0  0
   31.8800    2.3790   13.6120 N   0  3  0  0  0  0  0  0  0  0  0  0
   31.1600    1.6270   12.5700 C   0  0  0  0  0  0  0  0  0  0  0  0
   31.0500    2.3760   11.2500 C   0  0  0  0  0  0  0  0  0  0  0  0
   32.1930    2.7570   10.5550 C   0  0  0  0  0  0  0  0  0  0  0  0
   32.1250    3.4470    9.3490 C   0  0  0  0  0  0  0  0  0  0  0  0
   30.8790    3.7620    8.8330 C   0  0  0  0  0  0  0  0  0  0  0  0
   29.7240    3.3970    9.5140 C   0  0  0  0  0  0  0  0  0  0  0  0
   29.8110    2.7090   10.7160 C   0  0  0  0  0  0  0  0  0  0  0  0
   33.3850    3.8510    8.6190 C   0  0  0  0  0  0  0  0  0  0  0  0
   33.9290    5.1360    9.1460 C   0  0  0  0  0  0  0  0  0  0  0  0
   34.4600    2.7700    8.6940 C   0  0  0  0  0  0  0  0  0  0  0  0
   28.8630    5.9810   14.2640 O   0  0  0  0  0  0  0  0  0  0  0  0
   26.5790    5.6590   15.7480 C   0  0  0  0  0  0  0  0  0  0  0  0
   28.3350    8.1440   17.0100 C   0  0  0  0  0  0  0  0  0  0  0  0
   28.0583    4.7851   16.9914 H   0  0  0  0  0  0  0  0  0  0  0  0
   30.4668    5.7232   16.9607 H   0  0  0  0  0  0  0  0  0  0  0  0
   31.1859    6.3913   14.1412 H   0  0  0  0  0  0  0  0  0  0  0  0
   33.0675    6.2694   16.5025 H   0  0  0  0  0  0  0  0  0  0  0  0
   33.3114    7.0873   14.9529 H   0  0  0  0  0  0  0  0  0  0  0  0
   32.6374    7.5833   18.3091 H   0  0  0  0  0  0  0  0  0  0  0  0
   30.7908   11.4238   17.9282 H   0  0  0  0  0  0  0  0  0  0  0  0
   30.5665   11.0554   15.4923 H   0  0  0  0  0  0  0  0  0  0  0  0
   31.3960    8.9778   14.4721 H   0  0  0  0  0  0  0  0  0  0  0  0
   30.1368   10.4634   19.8238 H   0  0  0  0  0  0  0  0  0  0  0  0
   31.4540   11.0885   20.8529 H   0  0  0  0  0  0  0  0  0  0  0  0
   31.2920    8.3645   21.4397 H   0  0  0  0  0  0  0  0  0  0  0  0
   30.7430    9.7160   22.4572 H   0  0  0  0  0  0  0  0  0  0  0  0
   28.6430    9.6401   20.9561 H   0  0  0  0  0  0  0  0  0  0  0  0
   28.8397    8.4677   22.2732 H   0  0  0  0  0  0  0  0  0  0  0  0
   29.3538    6.7413   20.8286 H   0  0  0  0  0  0  0  0  0  0  0  0
   29.7986    7.8415   19.5087 H   0  0  0  0  0  0  0  0  0  0  0  0
   27.4037    8.5167   19.3110 H   0  0  0  0  0  0  0  0  0  0  0  0
   26.9913    7.3336   20.5737 H   0  0  0  0  0  0  0  0  0  0  0  0
   32.3848    4.0870   15.7221 H   0  0  0  0  0  0  0  0  0  0  0  0
   30.8060    4.1423   13.1253 H   0  0  0  0  0  0  0  0  0  0  0  0
   30.3250    3.3768   14.6565 H   0  0  0  0  0  0  0  0  0  0  0  0
   32.7936    2.6255   13.2590 H   0  0  0  0  0  0  0  0  0  0  0  0
   31.9912    1.7887   14.4240 H   0  0  0  0  0  0  0  0  0  0  0  0
   31.6887    0.6905   12.3925 H   0  0  0  0  0  0  0  0  0  0  0  0
   30.1564    1.4009   12.9302 H   0  0  0  0  0  0  0  0  0  0  0  0
   33.1617    2.5099   10.9636 H   0  0  0  0  0  0  0  0  0  0  0  0
   30.8046    4.2942    7.8962 H   0  0  0  0  0  0  0  0  0  0  0  0
   28.7561    3.6494    9.1067 H   0  0  0  0  0  0  0  0  0  0  0  0
   28.9090    2.4302   11.2404 H   0  0  0  0  0  0  0  0  0  0  0  0
   33.1315    3.9995    7.5694 H   0  0  0  0  0  0  0  0  0  0  0  0
   33.1598    5.9063    9.0915 H   0  0  0  0  0  0  0  0  0  0  0  0
   34.7888    5.4386    8.5483 H   0  0  0  0  0  0  0  0  0  0  0  0
   34.2364    5.0023   10.1832 H   0  0  0  0  0  0  0  0  0  0  0  0
   34.0534    4.8772   14.6045 H   0  0  0  0  0  0  0  0  0  0  0  0
   25.7842    5.5303   16.4828 H   0  0  0  0  0  0  0  0  0  0  0  0
   26.4144    6.5826   15.1930 H   0  0  0  0  0  0  0  0  0  0  0  0
   26.5761    4.8151   15.0581 H   0  0  0  0  0  0  0  0  0  0  0  0
   28.5362    8.1253   15.9389 H   0  0  0  0  0  0  0  0  0  0  0  0
   27.5163    8.8342   17.2136 H   0  0  0  0  0  0  0  0  0  0  0  0
   29.2279    8.4726   17.5418 H   0  0  0  0  0  0  0  0  0  0  0  0
   34.0603    1.8321    8.3085 H   0  0  0  0  0  0  0  0  0  0  0  0
   35.3201    3.0712    8.0961 H   0  0  0  0  0  0  0  0  0  0  0  0
   34.7677    2.6349    9.7309 H   0  0  0  0  0  0  0  0  0  0  0  0
  1  2  1  0  0  0  0
  1 19  1  0  0  0  0
  1 37  1  0  0  0  0
  2  3  1  0  0  0  0
  2 36  1  0  0  0  0
  2 38  1  1  0  0  0
  3  4  1  0  0  0  0
  3 35  2  0  0  0  0
  4  5  1  0  0  0  0
  5  6  1  0  0  0  0
  5 21  1  0  0  0  0
  5 40  1  6  0  0  0
  6  7  1  0  0  0  0
  7  8  2  0  0  0  0
  7 12  1  0  0  0  0
  8  9  1  0  0  0  0
  9 10  2  0  0  0  0
  9 13  1  0  0  0  0
 10 11  1  0  0  0  0
 11 12  2  0  0  0  0
 13 14  1  0  0  0  0
 14 15  1  0  0  0  0
 15 16  1  0  0  0  0
 16 17  1  0  0  0  0
 17 18  1  0  0  0  0
 18 19  1  0  0  0  0
 19 20  2  0  0  0  0
 21 22  1  0  0  0  0
 21 23  1  0  0  0  0
 21 57  1  1  0  0  0
 23 24  1  0  0  0  0
 24 25  1  0  0  0  0
 25 26  1  0  0  0  0
 26 27  2  0  0  0  0
 26 31  1  0  0  0  0
 27 28  1  0  0  0  0
 28 29  2  0  0  0  0
 28 32  1  0  0  0  0
 29 30  1  0  0  0  0
 30 31  2  0  0  0  0
 32 33  1  0  0  0  0
 32 34  1  0  0  0  0
 39  4  1  0  0  0  0
 41  6  1  0  0  0  0
 42  6  1  0  0  0  0
 43  8  1  0  0  0  0
 44 10  1  0  0  0  0
 45 11  1  0  0  0  0
 46 12  1  0  0  0  0
 47 14  1  0  0  0  0
 48 14  1  0  0  0  0
 49 15  1  0  0  0  0
 50 15  1  0  0  0  0
 51 16  1  0  0  0  0
 52 16  1  0  0  0  0
 53 17  1  0  0  0  0
 54 17  1  0  0  0  0
 55 18  1  0  0  0  0
 56 18  1  0  0  0  0
 58 23  1  0  0  0  0
 59 23  1  0  0  0  0
 60 24  1  0  0  0  0
 61 24  1  0  0  0  0
 62 25  1  0  0  0  0
 63 25  1  0  0  0  0
 64 27  1  0  0  0  0
 65 29  1  0  0  0  0
 66 30  1  0  0  0  0
 67 31  1  0  0  0  0
 68 32  1  0  0  0  0
 69 33  1  0  0  0  0
 70 33  1  0  0  0  0
 71 33  1  0  0  0  0
 72 22  1  0  0  0  0
 73 36  1  0  0  0  0
 74 36  1  0  0  0  0
 75 36  1  0  0  0  0
 76 37  1  0  0  0  0
 77 37  1  0  0  0  0
 78 37  1  0  0  0  0
 79 34  1  0  0  0  0
 80 34  1  0  0  0  0
 81 34  1  0  0  0  0
M  CHG  1  24   1
M  END
>  <IC50_NM>
32

>  <number_of_rotatable_bonds>
6

>  <lm5_entropy_jk>
39.71872868350828

>  <charge>
1

>  <old_name>
BACE_11

>  <xray_resolution>
2.25

$$$$
