5QCZ
 OpenBabel11252210453D

 77 80  0  0  1  0  0  0  0  0999 V2000
   32.9240    4.2790    9.2960 C   0  0  0  0  0  0  0  0  0  0  0  0
   31.7280    3.6830    9.8700 O   0  0  0  0  0  0  0  0  0  0  0  0
   32.0160    2.8690   11.0270 C   0  0  0  0  0  0  0  0  0  0  0  0
   30.7420    2.3900   11.7520 C   0  0  1  0  0  0  0  0  0  0  0  0
   30.9690    1.6050   13.0100 C   0  0  0  0  0  0  0  0  0  0  0  0
   31.8130    2.4210   13.9060 N   0  3  0  0  0  0  0  0  0  0  0  0
   31.1710    3.7130   14.2530 C   0  0  2  0  0  0  0  0  0  0  0  0
   30.6900    4.4210   12.9890 C   0  0  0  0  0  0  0  0  0  0  0  0
   29.9620    3.5360   12.1110 O   0  0  0  0  0  0  0  0  0  0  0  0
   32.2000    4.6190   14.9240 C   0  0  1  0  0  0  0  0  0  0  0  0
   33.2930    4.7960   14.0250 O   0  0  0  0  0  0  0  0  0  0  0  0
   31.6450    6.0280   15.2060 C   0  0  2  0  0  0  0  0  0  0  0  0
   32.7270    6.9340   15.8130 C   0  0  0  0  0  0  0  0  0  0  0  0
   32.1790    8.2600   16.2970 C   0  0  0  0  0  0  0  0  0  0  0  0
   31.8990    9.2800   15.3980 C   0  0  0  0  0  0  0  0  0  0  0  0
   31.3900   10.4950   15.8340 C   0  0  0  0  0  0  0  0  0  0  0  0
   31.1450   10.7160   17.1790 C   0  0  0  0  0  0  0  0  0  0  0  0
   31.4230    9.7040   18.0900 C   0  0  0  0  0  0  0  0  0  0  0  0
   31.9280    8.4770   17.6580 C   0  0  0  0  0  0  0  0  0  0  0  0
   31.1370   10.0290   19.3950 O   0  0  0  0  0  0  0  0  0  0  0  0
   31.4890    9.0990   20.4120 C   0  0  0  0  0  0  0  0  0  0  0  0
   30.4400    9.1820   21.4680 C   0  0  0  0  0  0  0  0  0  0  0  0
   29.1000    8.6170   21.0410 C   0  0  0  0  0  0  0  0  0  0  0  0
   29.1010    7.0880   20.8310 C   0  0  0  0  0  0  0  0  0  0  0  0
   27.8010    6.6300   20.3620 N   0  0  0  0  0  0  0  0  0  0  0  0
   27.4750    6.5820   19.0150 C   0  0  0  0  0  0  0  0  0  0  0  0
   26.1330    6.5350   18.6020 C   0  0  0  0  0  0  0  0  0  0  0  0
   25.8080    6.4810   17.2510 C   0  0  0  0  0  0  0  0  0  0  0  0
   24.3550    6.4490   16.8050 C   0  0  0  0  0  0  0  0  0  0  0  0
   23.9060    5.1290   16.5610 O   0  0  0  0  0  0  0  0  0  0  0  0
   23.6180    4.3970   17.7730 C   0  0  0  0  0  0  0  0  0  0  0  0
   26.8360    6.4500   16.3070 C   0  0  0  0  0  0  0  0  0  0  0  0
   28.1690    6.4620   16.7070 C   0  0  0  0  0  0  0  0  0  0  0  0
   28.4840    6.5460   18.0600 C   0  0  0  0  0  0  0  0  0  0  0  0
   29.2740    6.4580   15.6940 C   0  0  0  0  0  0  0  0  0  0  0  0
   29.0790    6.8610   14.5520 O   0  0  0  0  0  0  0  0  0  0  0  0
   30.4790    6.0160   16.0870 N   0  0  0  0  0  0  0  0  0  0  0  0
   32.6144    3.4548   11.7248 H   0  0  0  0  0  0  0  0  0  0  0  0
   32.5917    1.9986   10.7122 H   0  0  0  0  0  0  0  0  0  0  0  0
   30.1607    1.7780   11.0623 H   0  0  0  0  0  0  0  0  0  0  0  0
   30.0145    1.3928   13.4917 H   0  0  0  0  0  0  0  0  0  0  0  0
   31.4783    0.6706   12.7742 H   0  0  0  0  0  0  0  0  0  0  0  0
   31.9817    1.9025   14.7561 H   0  0  0  0  0  0  0  0  0  0  0  0
   32.6960    2.6037   13.4509 H   0  0  0  0  0  0  0  0  0  0  0  0
   30.3309    3.5420   14.9261 H   0  0  0  0  0  0  0  0  0  0  0  0
   30.0374    5.2457   13.2756 H   0  0  0  0  0  0  0  0  0  0  0  0
   31.5527    4.8199   12.4554 H   0  0  0  0  0  0  0  0  0  0  0  0
   32.5495    4.1637   15.8506 H   0  0  0  0  0  0  0  0  0  0  0  0
   31.3401    6.4634   14.2544 H   0  0  0  0  0  0  0  0  0  0  0  0
   33.4853    7.1269   15.0542 H   0  0  0  0  0  0  0  0  0  0  0  0
   33.1911    6.4162   16.6524 H   0  0  0  0  0  0  0  0  0  0  0  0
   32.0799    9.1257   14.3445 H   0  0  0  0  0  0  0  0  0  0  0  0
   31.1829   11.2760   15.1174 H   0  0  0  0  0  0  0  0  0  0  0  0
   30.7438   11.6608   17.5149 H   0  0  0  0  0  0  0  0  0  0  0  0
   32.1257    7.6932   18.3742 H   0  0  0  0  0  0  0  0  0  0  0  0
   31.5245    8.0906   19.9996 H   0  0  0  0  0  0  0  0  0  0  0  0
   32.4596    9.3610   20.8332 H   0  0  0  0  0  0  0  0  0  0  0  0
   30.7852    8.6270   22.3403 H   0  0  0  0  0  0  0  0  0  0  0  0
   30.3065   10.2270   21.7479 H   0  0  0  0  0  0  0  0  0  0  0  0
   28.8114    9.0914   20.1030 H   0  0  0  0  0  0  0  0  0  0  0  0
   28.3584    8.8648   21.8004 H   0  0  0  0  0  0  0  0  0  0  0  0
   29.3328    6.5977   21.7765 H   0  0  0  0  0  0  0  0  0  0  0  0
   29.8612    6.8268   20.0948 H   0  0  0  0  0  0  0  0  0  0  0  0
   27.1130    6.3372   21.0410 H   0  0  0  0  0  0  0  0  0  0  0  0
   25.3457    6.5409   19.3413 H   0  0  0  0  0  0  0  0  0  0  0  0
   23.7371    6.8924   17.5858 H   0  0  0  0  0  0  0  0  0  0  0  0
   24.2499    7.0352   15.8921 H   0  0  0  0  0  0  0  0  0  0  0  0
   26.5943    6.4163   15.2549 H   0  0  0  0  0  0  0  0  0  0  0  0
   29.5180    6.5834   18.3694 H   0  0  0  0  0  0  0  0  0  0  0  0
   30.5838    5.6618   17.0270 H   0  0  0  0  0  0  0  0  0  0  0  0
   33.6773    3.9416   13.8156 H   0  0  0  0  0  0  0  0  0  0  0  0
   23.2784    3.3928   17.5195 H   0  0  0  0  0  0  0  0  0  0  0  0
   22.8382    4.9136   18.3325 H   0  0  0  0  0  0  0  0  0  0  0  0
   24.5200    4.3327   18.3816 H   0  0  0  0  0  0  0  0  0  0  0  0
   32.6506    4.8806    8.4291 H   0  0  0  0  0  0  0  0  0  0  0  0
   33.6109    3.4905    8.9887 H   0  0  0  0  0  0  0  0  0  0  0  0
   33.4073    4.9123   10.0400 H   0  0  0  0  0  0  0  0  0  0  0  0
  1  2  1  0  0  0  0
  2  3  1  0  0  0  0
  3  4  1  0  0  0  0
  4  5  1  0  0  0  0
  4  9  1  0  0  0  0
  4 40  1  6  0  0  0
  5  6  1  0  0  0  0
  6  7  1  0  0  0  0
  7  8  1  0  0  0  0
  7 10  1  0  0  0  0
  7 45  1  1  0  0  0
  8  9  1  0  0  0  0
 10 11  1  0  0  0  0
 10 12  1  0  0  0  0
 10 48  1  1  0  0  0
 12 13  1  0  0  0  0
 12 37  1  0  0  0  0
 12 49  1  6  0  0  0
 13 14  1  0  0  0  0
 14 15  2  0  0  0  0
 14 19  1  0  0  0  0
 15 16  1  0  0  0  0
 16 17  2  0  0  0  0
 17 18  1  0  0  0  0
 18 19  2  0  0  0  0
 18 20  1  0  0  0  0
 20 21  1  0  0  0  0
 21 22  1  0  0  0  0
 22 23  1  0  0  0  0
 23 24  1  0  0  0  0
 24 25  1  0  0  0  0
 25 26  1  0  0  0  0
 26 27  2  0  0  0  0
 26 34  1  0  0  0  0
 27 28  1  0  0  0  0
 28 29  1  0  0  0  0
 28 32  2  0  0  0  0
 29 30  1  0  0  0  0
 30 31  1  0  0  0  0
 32 33  1  0  0  0  0
 33 34  2  0  0  0  0
 33 35  1  0  0  0  0
 35 36  2  0  0  0  0
 35 37  1  0  0  0  0
 38  3  1  0  0  0  0
 39  3  1  0  0  0  0
 41  5  1  0  0  0  0
 42  5  1  0  0  0  0
 43  6  1  0  0  0  0
 44  6  1  0  0  0  0
 46  8  1  0  0  0  0
 47  8  1  0  0  0  0
 50 13  1  0  0  0  0
 51 13  1  0  0  0  0
 52 15  1  0  0  0  0
 53 16  1  0  0  0  0
 54 17  1  0  0  0  0
 55 19  1  0  0  0  0
 56 21  1  0  0  0  0
 57 21  1  0  0  0  0
 58 22  1  0  0  0  0
 59 22  1  0  0  0  0
 60 23  1  0  0  0  0
 61 23  1  0  0  0  0
 62 24  1  0  0  0  0
 63 24  1  0  0  0  0
 64 25  1  0  0  0  0
 65 27  1  0  0  0  0
 66 29  1  0  0  0  0
 67 29  1  0  0  0  0
 68 32  1  0  0  0  0
 69 34  1  0  0  0  0
 70 37  1  0  0  0  0
 71 11  1  0  0  0  0
 72 31  1  0  0  0  0
 73 31  1  0  0  0  0
 74 31  1  0  0  0  0
 75  1  1  0  0  0  0
 76  1  1  0  0  0  0
 77  1  1  0  0  0  0
M  CHG  1   6   1
M  END
>  <IC50_NM>
8300

>  <number_of_rotatable_bonds>
6

>  <lm5_entropy_jk>
35.26261921194479

>  <charge>
1

>  <old_name>
BACE_13

>  <single_crystal_model>
yes

>  <xray_resolution>
2.3

$$$$
