5QD0
 OpenBabel11252210453D

 80 81  0  0  1  0  0  0  0  0999 V2000
   30.6470    3.5220    9.4990 N   0  0  0  0  0  0  0  0  0  0  0  0
   30.1800    2.8710   10.6020 N   0  0  0  0  0  0  0  0  0  0  0  0
   31.2930    2.4920   11.2420 C   0  0  0  0  0  0  0  0  0  0  0  0
   32.4390    2.9090   10.5600 C   0  0  0  0  0  0  0  0  0  0  0  0
   31.9910    3.5600    9.4460 C   0  0  0  0  0  0  0  0  0  0  0  0
   32.7330    4.2350    8.3200 C   0  0  0  0  0  0  0  0  0  0  0  0
   34.2390    4.2880    8.5470 C   0  0  0  0  0  0  0  0  0  0  0  0
   34.9540    5.0930    7.5300 C   0  0  0  0  0  0  0  0  0  0  0  0
   31.1760    1.7530   12.5390 C   0  0  0  0  0  0  0  0  0  0  0  0
   31.7880    2.4530   13.6530 N   0  3  0  0  0  0  0  0  0  0  0  0
   31.1150    3.7390   14.0270 C   0  0  0  0  0  0  0  0  0  0  0  0
   32.0860    4.5570   14.8950 C   0  0  1  0  0  0  0  0  0  0  0  0
   33.3410    4.6870   14.2130 O   0  0  0  0  0  0  0  0  0  0  0  0
   31.4590    5.9400   15.1770 C   0  0  1  0  0  0  0  0  0  0  0  0
   30.2370    5.8080   15.9700 N   0  0  0  0  0  0  0  0  0  0  0  0
   29.0000    5.8320   15.4260 C   0  0  0  0  0  0  0  0  0  0  0  0
   27.8410    5.6540   16.4180 C   0  0  1  0  0  0  0  0  0  0  0  0
   27.7560    6.8060   17.3050 N   0  0  0  0  0  0  0  0  0  0  0  0
   27.4140    6.5560   18.5900 C   0  0  0  0  0  0  0  0  0  0  0  0
   27.3470    7.7030   19.5530 C   0  0  0  0  0  0  0  0  0  0  0  0
   28.4860    7.6620   20.4230 O   0  0  0  0  0  0  0  0  0  0  0  0
   29.2200    8.8780   20.4670 C   0  0  0  0  0  0  0  0  0  0  0  0
   30.6250    8.5970   20.9370 C   0  0  0  0  0  0  0  0  0  0  0  0
   31.6890    9.0980   19.9550 C   0  0  0  0  0  0  0  0  0  0  0  0
   31.1120    9.9040   18.7760 C   0  0  0  0  0  0  0  0  0  0  0  0
   32.1420   10.3040   17.7490 C   0  0  0  0  0  0  0  0  0  0  0  0
   32.7840    9.1170   17.0590 C   0  0  0  0  0  0  0  0  0  0  0  0
   31.8050    8.2320   16.3060 C   0  0  2  0  0  0  0  0  0  0  0  0
   32.4350    6.9050   15.8560 C   0  0  0  0  0  0  0  0  0  0  0  0
   31.1650    8.9890   15.1460 C   0  0  0  0  0  0  0  0  0  0  0  0
   27.2070    5.4180   18.9910 O   0  0  0  0  0  0  0  0  0  0  0  0
   28.0360    8.1320   16.7340 C   0  0  0  0  0  0  0  0  0  0  0  0
   26.5220    5.3590   15.7230 C   0  0  0  0  0  0  0  0  0  0  0  0
   28.7910    5.9770   14.2230 O   0  0  0  0  0  0  0  0  0  0  0  0
   33.4662    2.7496   10.8530 H   0  0  0  0  0  0  0  0  0  0  0  0
   32.3607    5.2546    8.2208 H   0  0  0  0  0  0  0  0  0  0  0  0
   32.5348    3.6956    7.3938 H   0  0  0  0  0  0  0  0  0  0  0  0
   34.4262    4.7241    9.5283 H   0  0  0  0  0  0  0  0  0  0  0  0
   34.6331    3.2719    8.5324 H   0  0  0  0  0  0  0  0  0  0  0  0
   30.1187    1.6072   12.7604 H   0  0  0  0  0  0  0  0  0  0  0  0
   31.6510    0.7777   12.4325 H   0  0  0  0  0  0  0  0  0  0  0  0
   32.7460    2.6585   13.4078 H   0  0  0  0  0  0  0  0  0  0  0  0
   31.7854    1.8424   14.4575 H   0  0  0  0  0  0  0  0  0  0  0  0
   30.8644    4.2993   13.1263 H   0  0  0  0  0  0  0  0  0  0  0  0
   30.2072    3.5273   14.5919 H   0  0  0  0  0  0  0  0  0  0  0  0
   32.2450    4.0374   15.8399 H   0  0  0  0  0  0  0  0  0  0  0  0
   31.1815    6.3759   14.2173 H   0  0  0  0  0  0  0  0  0  0  0  0
   30.3215    5.6937   16.9699 H   0  0  0  0  0  0  0  0  0  0  0  0
   28.0783    4.7888   17.0371 H   0  0  0  0  0  0  0  0  0  0  0  0
   26.4347    7.6279   20.1448 H   0  0  0  0  0  0  0  0  0  0  0  0
   27.3454    8.6424   19.0001 H   0  0  0  0  0  0  0  0  0  0  0  0
   28.7370    9.5696   21.1573 H   0  0  0  0  0  0  0  0  0  0  0  0
   29.2511    9.3203   19.4713 H   0  0  0  0  0  0  0  0  0  0  0  0
   30.7766    9.0907   21.8969 H   0  0  0  0  0  0  0  0  0  0  0  0
   30.7449    7.5218   21.0698 H   0  0  0  0  0  0  0  0  0  0  0  0
   32.2210    8.2351   19.5543 H   0  0  0  0  0  0  0  0  0  0  0  0
   32.3969    9.7261   20.4958 H   0  0  0  0  0  0  0  0  0  0  0  0
   30.3535    9.2960   18.2829 H   0  0  0  0  0  0  0  0  0  0  0  0
   30.6388   10.8050   19.1664 H   0  0  0  0  0  0  0  0  0  0  0  0
   32.9223   10.8801   18.2463 H   0  0  0  0  0  0  0  0  0  0  0  0
   31.6646   10.9327   16.9974 H   0  0  0  0  0  0  0  0  0  0  0  0
   33.5218    9.4917   16.3495 H   0  0  0  0  0  0  0  0  0  0  0  0
   33.2957    8.5127   17.8081 H   0  0  0  0  0  0  0  0  0  0  0  0
   31.0039    7.9824   17.0017 H   0  0  0  0  0  0  0  0  0  0  0  0
   32.8491    6.4093   16.7340 H   0  0  0  0  0  0  0  0  0  0  0  0
   33.2479    7.1228   15.1633 H   0  0  0  0  0  0  0  0  0  0  0  0
   30.0481    3.9320    8.7966 H   0  0  0  0  0  0  0  0  0  0  0  0
   26.6390    4.4915   15.0735 H   0  0  0  0  0  0  0  0  0  0  0  0
   25.7560    5.1523   16.4704 H   0  0  0  0  0  0  0  0  0  0  0  0
   26.2245    6.2217   15.1269 H   0  0  0  0  0  0  0  0  0  0  0  0
   33.2049    5.1349   13.3749 H   0  0  0  0  0  0  0  0  0  0  0  0
   30.4686    8.3331   14.6236 H   0  0  0  0  0  0  0  0  0  0  0  0
   31.9411    9.3185   14.4552 H   0  0  0  0  0  0  0  0  0  0  0  0
   30.6284    9.8565   15.5302 H   0  0  0  0  0  0  0  0  0  0  0  0
   28.2654    8.0303   15.6733 H   0  0  0  0  0  0  0  0  0  0  0  0
   27.1623    8.7720   16.8568 H   0  0  0  0  0  0  0  0  0  0  0  0
   28.8875    8.5769   17.2489 H   0  0  0  0  0  0  0  0  0  0  0  0
   36.0218    5.0905    7.7488 H   0  0  0  0  0  0  0  0  0  0  0  0
   34.7847    4.6638    6.5425 H   0  0  0  0  0  0  0  0  0  0  0  0
   34.5815    6.1172    7.5497 H   0  0  0  0  0  0  0  0  0  0  0  0
  1  2  1  0  0  0  0
  1  5  1  0  0  0  0
  2  3  2  0  0  0  0
  3  4  1  0  0  0  0
  3  9  1  0  0  0  0
  4  5  2  0  0  0  0
  5  6  1  0  0  0  0
  6  7  1  0  0  0  0
  7  8  1  0  0  0  0
  9 10  1  0  0  0  0
 10 11  1  0  0  0  0
 11 12  1  0  0  0  0
 12 13  1  0  0  0  0
 12 14  1  0  0  0  0
 12 46  1  1  0  0  0
 14 15  1  0  0  0  0
 14 29  1  0  0  0  0
 14 47  1  6  0  0  0
 15 16  1  0  0  0  0
 16 17  1  0  0  0  0
 16 34  2  0  0  0  0
 17 18  1  0  0  0  0
 17 33  1  0  0  0  0
 17 49  1  1  0  0  0
 18 19  1  0  0  0  0
 18 32  1  0  0  0  0
 19 20  1  0  0  0  0
 19 31  2  0  0  0  0
 20 21  1  0  0  0  0
 21 22  1  0  0  0  0
 22 23  1  0  0  0  0
 23 24  1  0  0  0  0
 24 25  1  0  0  0  0
 25 26  1  0  0  0  0
 26 27  1  0  0  0  0
 27 28  1  0  0  0  0
 28 29  1  0  0  0  0
 28 30  1  0  0  0  0
 28 64  1  1  0  0  0
 35  4  1  0  0  0  0
 36  6  1  0  0  0  0
 37  6  1  0  0  0  0
 38  7  1  0  0  0  0
 39  7  1  0  0  0  0
 40  9  1  0  0  0  0
 41  9  1  0  0  0  0
 42 10  1  0  0  0  0
 43 10  1  0  0  0  0
 44 11  1  0  0  0  0
 45 11  1  0  0  0  0
 48 15  1  0  0  0  0
 50 20  1  0  0  0  0
 51 20  1  0  0  0  0
 52 22  1  0  0  0  0
 53 22  1  0  0  0  0
 54 23  1  0  0  0  0
 55 23  1  0  0  0  0
 56 24  1  0  0  0  0
 57 24  1  0  0  0  0
 58 25  1  0  0  0  0
 59 25  1  0  0  0  0
 60 26  1  0  0  0  0
 61 26  1  0  0  0  0
 62 27  1  0  0  0  0
 63 27  1  0  0  0  0
 65 29  1  0  0  0  0
 66 29  1  0  0  0  0
 67  1  1  0  0  0  0
 68 33  1  0  0  0  0
 69 33  1  0  0  0  0
 70 33  1  0  0  0  0
 71 13  1  0  0  0  0
 72 30  1  0  0  0  0
 73 30  1  0  0  0  0
 74 30  1  0  0  0  0
 75 32  1  0  0  0  0
 76 32  1  0  0  0  0
 77 32  1  0  0  0  0
 78  8  1  0  0  0  0
 79  8  1  0  0  0  0
 80  8  1  0  0  0  0
M  CHG  1  10   1
M  END
>  <IC50_NM>
400

>  <number_of_rotatable_bonds>
7

>  <lm5_entropy_jk>
40.33161332203715

>  <charge>
1

>  <old_name>
BACE_5

>  <xray_resolution>
2.6

$$$$
