5QD1
 OpenBabel11252210453D

 86 88  0  0  1  0  0  0  0  0999 V2000
   30.3060    6.0300   15.7920 N   0  0  0  0  0  0  0  0  0  0  0  0
   31.4600    6.0690   14.9150 C   0  0  1  0  0  0  0  0  0  0  0  0
   32.5260    6.9620   15.5440 C   0  0  0  0  0  0  0  0  0  0  0  0
   31.9240    8.2670   16.0790 C   0  0  1  0  0  0  0  0  0  0  0  0
   32.8780    8.9740   17.0490 C   0  0  0  0  0  0  0  0  0  0  0  0
   32.2840   10.2160   17.7270 C   0  0  0  0  0  0  0  0  0  0  0  0
   31.1400    9.8530   18.4920 O   0  0  0  0  0  0  0  0  0  0  0  0
   31.4620    9.3140   19.7790 C   0  0  0  0  0  0  0  0  0  0  0  0
   30.2890    9.5640   20.7210 C   0  0  0  0  0  0  0  0  0  0  0  0
   28.9700    8.9640   20.2180 C   0  0  0  0  0  0  0  0  0  0  0  0
   28.8670    7.4060   20.4280 C   0  0  0  0  0  0  0  0  0  0  0  0
   27.5890    6.8690   20.0190 N   0  0  0  0  0  0  0  0  0  0  0  0
   27.2870    6.5550   18.7020 C   0  0  0  0  0  0  0  0  0  0  0  0
   28.2840    6.5660   17.7260 C   0  0  0  0  0  0  0  0  0  0  0  0
   27.9770    6.2320   16.4030 C   0  0  0  0  0  0  0  0  0  0  0  0
   26.6640    5.9270   16.0520 C   0  0  0  0  0  0  0  0  0  0  0  0
   25.6540    5.9250   17.0190 C   0  0  0  0  0  0  0  0  0  0  0  0
   25.9790    6.2340   18.3380 C   0  0  0  0  0  0  0  0  0  0  0  0
   24.2330    5.5820   16.6370 C   0  0  0  0  0  0  0  0  0  0  0  0
   23.8530    4.3040   17.1600 O   0  0  0  0  0  0  0  0  0  0  0  0
   22.5580    4.3120   17.7620 C   0  0  0  0  0  0  0  0  0  0  0  0
   29.0540    6.2510   15.3630 C   0  0  0  0  0  0  0  0  0  0  0  0
   28.7910    6.4450   14.1820 O   0  0  0  0  0  0  0  0  0  0  0  0
   31.5020    9.1800   14.9310 C   0  0  0  0  0  0  0  0  0  0  0  0
   32.0480    4.6700   14.6570 C   0  0  2  0  0  0  0  0  0  0  0  0
   33.2770    4.8200   13.9470 O   0  0  0  0  0  0  0  0  0  0  0  0
   31.1330    3.7770   13.8170 C   0  0  0  0  0  0  0  0  0  0  0  0
   31.8380    2.4910   13.6390 N   0  3  0  0  0  0  0  0  0  0  0  0
   31.2400    1.6480   12.5840 C   0  0  0  0  0  0  0  0  0  0  0  0
   31.0800    2.3790   11.2570 C   0  0  0  0  0  0  0  0  0  0  0  0
   32.1940    2.7390   10.4990 C   0  0  0  0  0  0  0  0  0  0  0  0
   32.0710    3.4180    9.2890 C   0  0  0  0  0  0  0  0  0  0  0  0
   30.8040    3.7300    8.8310 C   0  0  0  0  0  0  0  0  0  0  0  0
   29.6820    3.3790    9.5690 C   0  0  0  0  0  0  0  0  0  0  0  0
   29.8190    2.7050   10.7720 C   0  0  0  0  0  0  0  0  0  0  0  0
   33.3000    3.7900    8.4600 C   0  0  0  0  0  0  0  0  0  0  0  0
   34.4550    2.8200    8.6780 C   0  0  0  0  0  0  0  0  0  0  0  0
   33.7660    5.2170    8.6890 C   0  0  0  0  0  0  0  0  0  0  0  0
   30.4512    5.8272   16.7707 H   0  0  0  0  0  0  0  0  0  0  0  0
   31.1594    6.5028   13.9613 H   0  0  0  0  0  0  0  0  0  0  0  0
   33.2765    7.2013   14.7907 H   0  0  0  0  0  0  0  0  0  0  0  0
   33.0023    6.4256   16.3647 H   0  0  0  0  0  0  0  0  0  0  0  0
   31.0245    8.0070   16.6370 H   0  0  0  0  0  0  0  0  0  0  0  0
   33.7646    9.2798   16.4935 H   0  0  0  0  0  0  0  0  0  0  0  0
   33.1779    8.2655   17.8211 H   0  0  0  0  0  0  0  0  0  0  0  0
   33.0314   10.6604   18.3843 H   0  0  0  0  0  0  0  0  0  0  0  0
   31.9951   10.9405   16.9656 H   0  0  0  0  0  0  0  0  0  0  0  0
   32.3553    9.8025   20.1681 H   0  0  0  0  0  0  0  0  0  0  0  0
   31.6396    8.2420   19.6926 H   0  0  0  0  0  0  0  0  0  0  0  0
   30.5229    9.1224   21.6897 H   0  0  0  0  0  0  0  0  0  0  0  0
   30.1613   10.6392   20.8461 H   0  0  0  0  0  0  0  0  0  0  0  0
   28.1485    9.4392   20.7541 H   0  0  0  0  0  0  0  0  0  0  0  0
   28.8681    9.1823   19.1550 H   0  0  0  0  0  0  0  0  0  0  0  0
   29.0144    7.1868   21.4855 H   0  0  0  0  0  0  0  0  0  0  0  0
   29.6549    6.9193   19.8532 H   0  0  0  0  0  0  0  0  0  0  0  0
   26.8831    6.7152   20.7248 H   0  0  0  0  0  0  0  0  0  0  0  0
   29.2958    6.8332   17.9929 H   0  0  0  0  0  0  0  0  0  0  0  0
   26.4244    5.6904   15.0258 H   0  0  0  0  0  0  0  0  0  0  0  0
   25.2053    6.2249   19.0915 H   0  0  0  0  0  0  0  0  0  0  0  0
   24.1520    5.5602   15.5502 H   0  0  0  0  0  0  0  0  0  0  0  0
   23.5617    6.3448   17.0314 H   0  0  0  0  0  0  0  0  0  0  0  0
   32.2441    4.1829   15.6122 H   0  0  0  0  0  0  0  0  0  0  0  0
   30.1867    3.6176   14.3340 H   0  0  0  0  0  0  0  0  0  0  0  0
   30.9525    4.2389   12.8464 H   0  0  0  0  0  0  0  0  0  0  0  0
   31.8081    1.9839   14.5119 H   0  0  0  0  0  0  0  0  0  0  0  0
   32.8020    2.6768   13.4017 H   0  0  0  0  0  0  0  0  0  0  0  0
   31.8814    0.7807   12.4275 H   0  0  0  0  0  0  0  0  0  0  0  0
   30.2605    1.3064   12.9186 H   0  0  0  0  0  0  0  0  0  0  0  0
   33.1794    2.4842   10.8602 H   0  0  0  0  0  0  0  0  0  0  0  0
   30.6866    4.2507    7.8921 H   0  0  0  0  0  0  0  0  0  0  0  0
   28.6977    3.6324    9.2039 H   0  0  0  0  0  0  0  0  0  0  0  0
   28.9399    2.4312   11.3365 H   0  0  0  0  0  0  0  0  0  0  0  0
   33.0125    3.7129    7.4114 H   0  0  0  0  0  0  0  0  0  0  0  0
   32.9328    5.9017    8.5306 H   0  0  0  0  0  0  0  0  0  0  0  0
   34.5683    5.4535    7.9901 H   0  0  0  0  0  0  0  0  0  0  0  0
   34.1319    5.3202    9.7105 H   0  0  0  0  0  0  0  0  0  0  0  0
   33.9937    4.9510   14.5721 H   0  0  0  0  0  0  0  0  0  0  0  0
   31.0779   10.0995   15.3344 H   0  0  0  0  0  0  0  0  0  0  0  0
   32.3716    9.4193   14.3189 H   0  0  0  0  0  0  0  0  0  0  0  0
   30.7555    8.6733   14.3194 H   0  0  0  0  0  0  0  0  0  0  0  0
   34.1097    1.7997    8.5112 H   0  0  0  0  0  0  0  0  0  0  0  0
   35.2591    3.0500    7.9790 H   0  0  0  0  0  0  0  0  0  0  0  0
   34.8228    2.9167    9.6995 H   0  0  0  0  0  0  0  0  0  0  0  0
   22.3261    3.3161   18.1396 H   0  0  0  0  0  0  0  0  0  0  0  0
   21.8142    4.6011   17.0195 H   0  0  0  0  0  0  0  0  0  0  0  0
   22.5449    5.0252   18.5862 H   0  0  0  0  0  0  0  0  0  0  0  0
  1  2  1  0  0  0  0
  1 22  1  0  0  0  0
  2  3  1  0  0  0  0
  2 25  1  0  0  0  0
  2 40  1  6  0  0  0
  3  4  1  0  0  0  0
  4  5  1  0  0  0  0
  4 24  1  0  0  0  0
  4 43  1  1  0  0  0
  5  6  1  0  0  0  0
  6  7  1  0  0  0  0
  7  8  1  0  0  0  0
  8  9  1  0  0  0  0
  9 10  1  0  0  0  0
 10 11  1  0  0  0  0
 11 12  1  0  0  0  0
 12 13  1  0  0  0  0
 13 14  2  0  0  0  0
 13 18  1  0  0  0  0
 14 15  1  0  0  0  0
 15 16  2  0  0  0  0
 15 22  1  0  0  0  0
 16 17  1  0  0  0  0
 17 18  2  0  0  0  0
 17 19  1  0  0  0  0
 19 20  1  0  0  0  0
 20 21  1  0  0  0  0
 22 23  2  0  0  0  0
 25 26  1  0  0  0  0
 25 27  1  0  0  0  0
 25 62  1  1  0  0  0
 27 28  1  0  0  0  0
 28 29  1  0  0  0  0
 29 30  1  0  0  0  0
 30 31  2  0  0  0  0
 30 35  1  0  0  0  0
 31 32  1  0  0  0  0
 32 33  2  0  0  0  0
 32 36  1  0  0  0  0
 33 34  1  0  0  0  0
 34 35  2  0  0  0  0
 36 37  1  0  0  0  0
 36 38  1  0  0  0  0
 39  1  1  0  0  0  0
 41  3  1  0  0  0  0
 42  3  1  0  0  0  0
 44  5  1  0  0  0  0
 45  5  1  0  0  0  0
 46  6  1  0  0  0  0
 47  6  1  0  0  0  0
 48  8  1  0  0  0  0
 49  8  1  0  0  0  0
 50  9  1  0  0  0  0
 51  9  1  0  0  0  0
 52 10  1  0  0  0  0
 53 10  1  0  0  0  0
 54 11  1  0  0  0  0
 55 11  1  0  0  0  0
 56 12  1  0  0  0  0
 57 14  1  0  0  0  0
 58 16  1  0  0  0  0
 59 18  1  0  0  0  0
 60 19  1  0  0  0  0
 61 19  1  0  0  0  0
 63 27  1  0  0  0  0
 64 27  1  0  0  0  0
 65 28  1  0  0  0  0
 66 28  1  0  0  0  0
 67 29  1  0  0  0  0
 68 29  1  0  0  0  0
 69 31  1  0  0  0  0
 70 33  1  0  0  0  0
 71 34  1  0  0  0  0
 72 35  1  0  0  0  0
 73 36  1  0  0  0  0
 74 38  1  0  0  0  0
 75 38  1  0  0  0  0
 76 38  1  0  0  0  0
 77 26  1  0  0  0  0
 78 24  1  0  0  0  0
 79 24  1  0  0  0  0
 80 24  1  0  0  0  0
 81 37  1  0  0  0  0
 82 37  1  0  0  0  0
 83 37  1  0  0  0  0
 84 21  1  0  0  0  0
 85 21  1  0  0  0  0
 86 21  1  0  0  0  0
M  CHG  1  28   1
M  END
>  <IC50_NM>
570

>  <number_of_rotatable_bonds>
8

>  <lm5_entropy_jk>
43.09589189476858

>  <charge>
1

>  <old_name>
BACE_10

>  <xray_resolution>
2.4

$$$$
