5QD2
 OpenBabel11252210453D

 83 86  0  0  1  0  0  0  0  0999 V2000
   30.5920    6.1550   15.8730 N   0  0  0  0  0  0  0  0  0  0  0  0
   31.7630    6.1580   15.0150 C   0  0  1  0  0  0  0  0  0  0  0  0
   32.8370    7.0620   15.6380 C   0  0  0  0  0  0  0  0  0  0  0  0
   32.2410    8.3240   16.2190 C   0  0  0  0  0  0  0  0  0  0  0  0
   32.0880    8.4670   17.5970 C   0  0  0  0  0  0  0  0  0  0  0  0
   31.5140    9.6220   18.1180 C   0  0  0  0  0  0  0  0  0  0  0  0
   31.0710   10.6350   17.2830 C   0  0  0  0  0  0  0  0  0  0  0  0
   31.2090   10.4850   15.9180 C   0  0  0  0  0  0  0  0  0  0  0  0
   31.7880    9.3420   15.3910 C   0  0  0  0  0  0  0  0  0  0  0  0
   31.3540    9.8300   19.4600 O   0  0  0  0  0  0  0  0  0  0  0  0
   31.7610    8.7890   20.3640 C   0  0  0  0  0  0  0  0  0  0  0  0
   30.6580    8.6140   21.3750 C   0  0  0  0  0  0  0  0  0  0  0  0
   29.4890    7.7810   20.8600 C   0  0  0  0  0  0  0  0  0  0  0  0
   28.5440    8.5840   20.0220 C   0  0  0  0  0  0  0  0  0  0  0  0
   27.4140    7.7530   19.7270 O   0  0  0  0  0  0  0  0  0  0  0  0
   27.3650    7.1180   18.5120 C   0  0  0  0  0  0  0  0  0  0  0  0
   28.4230    7.0360   17.6100 C   0  0  0  0  0  0  0  0  0  0  0  0
   28.2440    6.3470   16.4100 C   0  0  0  0  0  0  0  0  0  0  0  0
   27.0070    5.7760   16.1220 C   0  0  0  0  0  0  0  0  0  0  0  0
   25.9480    5.8540   17.0380 C   0  0  0  0  0  0  0  0  0  0  0  0
   26.1380    6.5310   18.2390 C   0  0  0  0  0  0  0  0  0  0  0  0
   24.6220    5.2020   16.7310 C   0  0  0  0  0  0  0  0  0  0  0  0
   24.1250    4.4910   17.8690 O   0  0  0  0  0  0  0  0  0  0  0  0
   22.7710    4.1060   17.7310 C   0  0  0  0  0  0  0  0  0  0  0  0
   29.3540    6.2910   15.4050 C   0  0  0  0  0  0  0  0  0  0  0  0
   29.1280    6.3830   14.2080 O   0  0  0  0  0  0  0  0  0  0  0  0
   32.3040    4.7490   14.7790 C   0  0  2  0  0  0  0  0  0  0  0  0
   33.5090    4.8630   14.0190 O   0  0  0  0  0  0  0  0  0  0  0  0
   31.3030    3.8960   13.9800 C   0  0  0  0  0  0  0  0  0  0  0  0
   31.9990    2.6500   13.6000 N   0  3  0  0  0  0  0  0  0  0  0  0
   31.2820    1.8720   12.5760 C   0  0  0  0  0  0  0  0  0  0  0  0
   31.2240    2.5620   11.2130 C   0  0  0  0  0  0  0  0  0  0  0  0
   32.3920    2.8720   10.5090 C   0  0  0  0  0  0  0  0  0  0  0  0
   32.3480    3.5160    9.2760 C   0  0  0  0  0  0  0  0  0  0  0  0
   31.1120    3.8390    8.7380 C   0  0  0  0  0  0  0  0  0  0  0  0
   29.9450    3.5390    9.4230 C   0  0  0  0  0  0  0  0  0  0  0  0
   30.0020    2.9050   10.6490 C   0  0  0  0  0  0  0  0  0  0  0  0
   33.6200    3.8400    8.4980 C   0  0  0  0  0  0  0  0  0  0  0  0
   34.1550    5.2300    8.8080 C   0  0  0  0  0  0  0  0  0  0  0  0
   34.7010    2.8100    8.6930 C   0  0  0  0  0  0  0  0  0  0  0  0
   30.7228    6.0449   16.8684 H   0  0  0  0  0  0  0  0  0  0  0  0
   31.4787    6.5802   14.0512 H   0  0  0  0  0  0  0  0  0  0  0  0
   33.5584    7.3349   14.8678 H   0  0  0  0  0  0  0  0  0  0  0  0
   33.3498    6.5136   16.4282 H   0  0  0  0  0  0  0  0  0  0  0  0
   32.4154    7.6804   18.2607 H   0  0  0  0  0  0  0  0  0  0  0  0
   30.6245   11.5284   17.6940 H   0  0  0  0  0  0  0  0  0  0  0  0
   30.8630   11.2646   15.2556 H   0  0  0  0  0  0  0  0  0  0  0  0
   31.8884    9.2415   14.3204 H   0  0  0  0  0  0  0  0  0  0  0  0
   31.9152    7.8593   19.8163 H   0  0  0  0  0  0  0  0  0  0  0  0
   32.6828    9.0776   20.8690 H   0  0  0  0  0  0  0  0  0  0  0  0
   31.0715    8.1215   22.2551 H   0  0  0  0  0  0  0  0  0  0  0  0
   30.2877    9.5975   21.6645 H   0  0  0  0  0  0  0  0  0  0  0  0
   28.9440    7.3771   21.7132 H   0  0  0  0  0  0  0  0  0  0  0  0
   29.8774    6.9551   20.2641 H   0  0  0  0  0  0  0  0  0  0  0  0
   29.0338    8.8875   19.0967 H   0  0  0  0  0  0  0  0  0  0  0  0
   28.2193    9.4659   20.5742 H   0  0  0  0  0  0  0  0  0  0  0  0
   29.3713    7.5005   17.8368 H   0  0  0  0  0  0  0  0  0  0  0  0
   26.8613    5.2665   15.1810 H   0  0  0  0  0  0  0  0  0  0  0  0
   25.3331    6.5992   18.9559 H   0  0  0  0  0  0  0  0  0  0  0  0
   24.7509    4.5045   15.9034 H   0  0  0  0  0  0  0  0  0  0  0  0
   23.9026    5.9692   16.4449 H   0  0  0  0  0  0  0  0  0  0  0  0
   32.5152    4.2703   15.7352 H   0  0  0  0  0  0  0  0  0  0  0  0
   30.4337    3.6654   14.5958 H   0  0  0  0  0  0  0  0  0  0  0  0
   30.9905    4.4334   13.0847 H   0  0  0  0  0  0  0  0  0  0  0  0
   32.1021    2.0761   14.4247 H   0  0  0  0  0  0  0  0  0  0  0  0
   32.9167    2.8835   13.2486 H   0  0  0  0  0  0  0  0  0  0  0  0
   31.7865    0.9133   12.4557 H   0  0  0  0  0  0  0  0  0  0  0  0
   30.2640    1.6917   12.9214 H   0  0  0  0  0  0  0  0  0  0  0  0
   33.3495    2.6057   10.9316 H   0  0  0  0  0  0  0  0  0  0  0  0
   31.0579    4.3286    7.7769 H   0  0  0  0  0  0  0  0  0  0  0  0
   28.9880    3.8018    8.9969 H   0  0  0  0  0  0  0  0  0  0  0  0
   29.0871    2.6737   11.1742 H   0  0  0  0  0  0  0  0  0  0  0  0
   33.3573    3.8290    7.4402 H   0  0  0  0  0  0  0  0  0  0  0  0
   34.2518    4.9879   14.6142 H   0  0  0  0  0  0  0  0  0  0  0  0
   22.4519    3.5710   18.6254 H   0  0  0  0  0  0  0  0  0  0  0  0
   22.1527    4.9939   17.5990 H   0  0  0  0  0  0  0  0  0  0  0  0
   22.6646    3.4568   16.8619 H   0  0  0  0  0  0  0  0  0  0  0  0
   33.3634    5.9652    8.6631 H   0  0  0  0  0  0  0  0  0  0  0  0
   34.9869    5.4559    8.1410 H   0  0  0  0  0  0  0  0  0  0  0  0
   34.4984    5.2649    9.8419 H   0  0  0  0  0  0  0  0  0  0  0  0
   34.3049    1.8198    8.4679 H   0  0  0  0  0  0  0  0  0  0  0  0
   35.5348    3.0279    8.0256 H   0  0  0  0  0  0  0  0  0  0  0  0
   35.0463    2.8369    9.7265 H   0  0  0  0  0  0  0  0  0  0  0  0
  1  2  1  0  0  0  0
  1 25  1  0  0  0  0
  2  3  1  0  0  0  0
  2 27  1  0  0  0  0
  2 42  1  6  0  0  0
  3  4  1  0  0  0  0
  4  5  2  0  0  0  0
  4  9  1  0  0  0  0
  5  6  1  0  0  0  0
  6  7  2  0  0  0  0
  6 10  1  0  0  0  0
  7  8  1  0  0  0  0
  8  9  2  0  0  0  0
 10 11  1  0  0  0  0
 11 12  1  0  0  0  0
 12 13  1  0  0  0  0
 13 14  1  0  0  0  0
 14 15  1  0  0  0  0
 15 16  1  0  0  0  0
 16 17  2  0  0  0  0
 16 21  1  0  0  0  0
 17 18  1  0  0  0  0
 18 19  2  0  0  0  0
 18 25  1  0  0  0  0
 19 20  1  0  0  0  0
 20 21  2  0  0  0  0
 20 22  1  0  0  0  0
 22 23  1  0  0  0  0
 23 24  1  0  0  0  0
 25 26  2  0  0  0  0
 27 28  1  0  0  0  0
 27 29  1  0  0  0  0
 27 62  1  1  0  0  0
 29 30  1  0  0  0  0
 30 31  1  0  0  0  0
 31 32  1  0  0  0  0
 32 33  2  0  0  0  0
 32 37  1  0  0  0  0
 33 34  1  0  0  0  0
 34 35  2  0  0  0  0
 34 38  1  0  0  0  0
 35 36  1  0  0  0  0
 36 37  2  0  0  0  0
 38 39  1  0  0  0  0
 38 40  1  0  0  0  0
 41  1  1  0  0  0  0
 43  3  1  0  0  0  0
 44  3  1  0  0  0  0
 45  5  1  0  0  0  0
 46  7  1  0  0  0  0
 47  8  1  0  0  0  0
 48  9  1  0  0  0  0
 49 11  1  0  0  0  0
 50 11  1  0  0  0  0
 51 12  1  0  0  0  0
 52 12  1  0  0  0  0
 53 13  1  0  0  0  0
 54 13  1  0  0  0  0
 55 14  1  0  0  0  0
 56 14  1  0  0  0  0
 57 17  1  0  0  0  0
 58 19  1  0  0  0  0
 59 21  1  0  0  0  0
 60 22  1  0  0  0  0
 61 22  1  0  0  0  0
 63 29  1  0  0  0  0
 64 29  1  0  0  0  0
 65 30  1  0  0  0  0
 66 30  1  0  0  0  0
 67 31  1  0  0  0  0
 68 31  1  0  0  0  0
 69 33  1  0  0  0  0
 70 35  1  0  0  0  0
 71 36  1  0  0  0  0
 72 37  1  0  0  0  0
 73 38  1  0  0  0  0
 74 28  1  0  0  0  0
 75 24  1  0  0  0  0
 76 24  1  0  0  0  0
 77 24  1  0  0  0  0
 78 39  1  0  0  0  0
 79 39  1  0  0  0  0
 80 39  1  0  0  0  0
 81 40  1  0  0  0  0
 82 40  1  0  0  0  0
 83 40  1  0  0  0  0
M  CHG  1  30   1
M  END
>  <IC50_NM>
72

>  <number_of_rotatable_bonds>
8

>  <lm5_entropy_jk>
40.43659014618979

>  <charge>
1

>  <old_name>
BACE_15

>  <xray_resolution>
2.5

$$$$
