5QD5
 OpenBabel11252210453D

 78 80  0  0  1  0  0  0  0  0999 V2000
   24.3450    4.8580   16.7120 Cl  0  0  0  0  0  0  0  0  0  0  0  0
   25.9290    5.4810   17.0860 C   0  0  0  0  0  0  0  0  0  0  0  0
   26.1200    5.8730   18.3440 N   0  0  0  0  0  0  0  0  0  0  0  0
   27.3430    6.3550   18.6450 C   0  0  0  0  0  0  0  0  0  0  0  0
   28.3700    6.4540   17.7050 C   0  0  0  0  0  0  0  0  0  0  0  0
   28.1140    6.0250   16.4040 C   0  0  0  0  0  0  0  0  0  0  0  0
   26.8640    5.5320   16.0780 C   0  0  0  0  0  0  0  0  0  0  0  0
   29.1830    6.0890   15.3730 C   0  0  0  0  0  0  0  0  0  0  0  0
   30.4320    5.9370   15.8250 N   0  0  0  0  0  0  0  0  0  0  0  0
   31.5970    6.0180   14.9650 C   0  0  1  0  0  0  0  0  0  0  0  0
   32.6280    6.9330   15.6170 C   0  0  0  0  0  0  0  0  0  0  0  0
   31.9910    8.2180   16.1620 C   0  0  1  0  0  0  0  0  0  0  0  0
   32.9570    8.8930   17.1510 C   0  0  0  0  0  0  0  0  0  0  0  0
   32.3730   10.0980   17.8820 C   0  0  0  0  0  0  0  0  0  0  0  0
   31.1660    9.7280   18.5350 O   0  0  0  0  0  0  0  0  0  0  0  0
   31.3490    9.2740   19.8510 C   0  0  0  0  0  0  0  0  0  0  0  0
   30.0820    9.5700   20.6350 C   0  0  0  0  0  0  0  0  0  0  0  0
   28.8370    8.8920   20.0510 C   0  0  0  0  0  0  0  0  0  0  0  0
   28.7790    7.3770   20.3910 C   0  0  0  0  0  0  0  0  0  0  0  0
   27.5470    6.7630   19.9270 N   0  0  0  0  0  0  0  0  0  0  0  0
   31.6120    9.1510   15.0090 C   0  0  0  0  0  0  0  0  0  0  0  0
   32.2100    4.6410   14.7150 C   0  0  2  0  0  0  0  0  0  0  0  0
   33.4540    4.8140   14.0290 O   0  0  0  0  0  0  0  0  0  0  0  0
   31.2730    3.7680   13.8710 C   0  0  0  0  0  0  0  0  0  0  0  0
   31.9100    2.4610   13.6210 N   0  3  0  0  0  0  0  0  0  0  0  0
   31.2440    1.6810   12.5590 C   0  0  0  0  0  0  0  0  0  0  0  0
   31.1150    2.4200   11.2390 C   0  0  0  0  0  0  0  0  0  0  0  0
   32.2450    2.8140   10.5240 C   0  0  0  0  0  0  0  0  0  0  0  0
   32.1440    3.4940    9.3190 C   0  0  0  0  0  0  0  0  0  0  0  0
   30.8860    3.7780    8.8200 C   0  0  0  0  0  0  0  0  0  0  0  0
   29.7520    3.4020    9.5210 C   0  0  0  0  0  0  0  0  0  0  0  0
   29.8670    2.7260   10.7200 C   0  0  0  0  0  0  0  0  0  0  0  0
   33.3780    3.8960    8.5320 C   0  0  0  0  0  0  0  0  0  0  0  0
   33.9440    5.2230    8.9790 C   0  0  0  0  0  0  0  0  0  0  0  0
   34.4430    2.8270    8.5860 C   0  0  0  0  0  0  0  0  0  0  0  0
   28.9180    6.2530   14.1860 O   0  0  0  0  0  0  0  0  0  0  0  0
   29.3361    6.8520   17.9783 H   0  0  0  0  0  0  0  0  0  0  0  0
   26.6319    5.2016   15.0763 H   0  0  0  0  0  0  0  0  0  0  0  0
   30.5704    5.7578   16.8093 H   0  0  0  0  0  0  0  0  0  0  0  0
   31.2991    6.4490   14.0092 H   0  0  0  0  0  0  0  0  0  0  0  0
   33.3805    7.2004   14.8752 H   0  0  0  0  0  0  0  0  0  0  0  0
   33.1098    6.3994   16.4363 H   0  0  0  0  0  0  0  0  0  0  0  0
   31.0816    7.9493   16.6995 H   0  0  0  0  0  0  0  0  0  0  0  0
   33.2534    8.1540   17.8954 H   0  0  0  0  0  0  0  0  0  0  0  0
   33.8450    9.2135   16.6061 H   0  0  0  0  0  0  0  0  0  0  0  0
   33.0898   10.4542   18.6219 H   0  0  0  0  0  0  0  0  0  0  0  0
   32.1679   10.8925   17.1645 H   0  0  0  0  0  0  0  0  0  0  0  0
   32.1937    9.7915   20.3057 H   0  0  0  0  0  0  0  0  0  0  0  0
   31.5356    8.2001   19.8464 H   0  0  0  0  0  0  0  0  0  0  0  0
   30.2186    9.2205   21.6584 H   0  0  0  0  0  0  0  0  0  0  0  0
   29.9212   10.6480   20.6499 H   0  0  0  0  0  0  0  0  0  0  0  0
   27.9499    9.3771   20.4581 H   0  0  0  0  0  0  0  0  0  0  0  0
   28.8421    9.0128   18.9677 H   0  0  0  0  0  0  0  0  0  0  0  0
   28.8471    7.2560   21.4721 H   0  0  0  0  0  0  0  0  0  0  0  0
   29.6254    6.8745   19.9227 H   0  0  0  0  0  0  0  0  0  0  0  0
   26.7997    6.6315   20.5935 H   0  0  0  0  0  0  0  0  0  0  0  0
   32.3928    4.1507   15.6712 H   0  0  0  0  0  0  0  0  0  0  0  0
   31.0740    4.2627   12.9203 H   0  0  0  0  0  0  0  0  0  0  0  0
   30.3352    3.6187   14.4062 H   0  0  0  0  0  0  0  0  0  0  0  0
   31.8861    1.9240   14.4761 H   0  0  0  0  0  0  0  0  0  0  0  0
   32.8734    2.6129   13.3584 H   0  0  0  0  0  0  0  0  0  0  0  0
   30.2440    1.4174   12.9033 H   0  0  0  0  0  0  0  0  0  0  0  0
   31.8092    0.7640   12.3923 H   0  0  0  0  0  0  0  0  0  0  0  0
   33.2239    2.5840   10.9181 H   0  0  0  0  0  0  0  0  0  0  0  0
   30.7870    4.2963    7.8777 H   0  0  0  0  0  0  0  0  0  0  0  0
   28.7740    3.6384    9.1285 H   0  0  0  0  0  0  0  0  0  0  0  0
   28.9771    2.4335   11.2574 H   0  0  0  0  0  0  0  0  0  0  0  0
   33.0783    4.0045    7.4897 H   0  0  0  0  0  0  0  0  0  0  0  0
   34.0208    1.8760    8.2612 H   0  0  0  0  0  0  0  0  0  0  0  0
   34.8098    2.7312    9.6080 H   0  0  0  0  0  0  0  0  0  0  0  0
   35.2676    3.1020    7.9283 H   0  0  0  0  0  0  0  0  0  0  0  0
   34.1555    4.9551   14.6690 H   0  0  0  0  0  0  0  0  0  0  0  0
   31.1610   10.0591   15.4090 H   0  0  0  0  0  0  0  0  0  0  0  0
   32.5063    9.4091   14.4419 H   0  0  0  0  0  0  0  0  0  0  0  0
   30.8992    8.6491   14.3548 H   0  0  0  0  0  0  0  0  0  0  0  0
   33.1651    5.9842    8.9349 H   0  0  0  0  0  0  0  0  0  0  0  0
   34.3090    5.1358   10.0024 H   0  0  0  0  0  0  0  0  0  0  0  0
   34.7668    5.5067    8.3227 H   0  0  0  0  0  0  0  0  0  0  0  0
  1  2  1  0  0  0  0
  2  3  2  0  0  0  0
  2  7  1  0  0  0  0
  3  4  1  0  0  0  0
  4  5  2  0  0  0  0
  4 20  1  0  0  0  0
  5  6  1  0  0  0  0
  6  7  2  0  0  0  0
  6  8  1  0  0  0  0
  8  9  1  0  0  0  0
  8 36  2  0  0  0  0
  9 10  1  0  0  0  0
 10 11  1  0  0  0  0
 10 22  1  0  0  0  0
 10 40  1  6  0  0  0
 11 12  1  0  0  0  0
 12 13  1  0  0  0  0
 12 21  1  0  0  0  0
 12 43  1  1  0  0  0
 13 14  1  0  0  0  0
 14 15  1  0  0  0  0
 15 16  1  0  0  0  0
 16 17  1  0  0  0  0
 17 18  1  0  0  0  0
 18 19  1  0  0  0  0
 19 20  1  0  0  0  0
 22 23  1  0  0  0  0
 22 24  1  0  0  0  0
 22 57  1  1  0  0  0
 24 25  1  0  0  0  0
 25 26  1  0  0  0  0
 26 27  1  0  0  0  0
 27 28  2  0  0  0  0
 27 32  1  0  0  0  0
 28 29  1  0  0  0  0
 29 30  2  0  0  0  0
 29 33  1  0  0  0  0
 30 31  1  0  0  0  0
 31 32  2  0  0  0  0
 33 34  1  0  0  0  0
 33 35  1  0  0  0  0
 37  5  1  0  0  0  0
 38  7  1  0  0  0  0
 39  9  1  0  0  0  0
 41 11  1  0  0  0  0
 42 11  1  0  0  0  0
 44 13  1  0  0  0  0
 45 13  1  0  0  0  0
 46 14  1  0  0  0  0
 47 14  1  0  0  0  0
 48 16  1  0  0  0  0
 49 16  1  0  0  0  0
 50 17  1  0  0  0  0
 51 17  1  0  0  0  0
 52 18  1  0  0  0  0
 53 18  1  0  0  0  0
 54 19  1  0  0  0  0
 55 19  1  0  0  0  0
 56 20  1  0  0  0  0
 58 24  1  0  0  0  0
 59 24  1  0  0  0  0
 60 25  1  0  0  0  0
 61 25  1  0  0  0  0
 62 26  1  0  0  0  0
 63 26  1  0  0  0  0
 64 28  1  0  0  0  0
 65 30  1  0  0  0  0
 66 31  1  0  0  0  0
 67 32  1  0  0  0  0
 68 33  1  0  0  0  0
 69 35  1  0  0  0  0
 70 35  1  0  0  0  0
 71 35  1  0  0  0  0
 72 23  1  0  0  0  0
 73 21  1  0  0  0  0
 74 21  1  0  0  0  0
 75 21  1  0  0  0  0
 76 34  1  0  0  0  0
 77 34  1  0  0  0  0
 78 34  1  0  0  0  0
M  CHG  1  25   1
M  END
>  <IC50_NM>
31

>  <number_of_rotatable_bonds>
6

>  <lm5_entropy_jk>
37.68812041732692

>  <charge>
1

>  <old_name>
BACE_8

>  <xray_resolution>
2.3

$$$$
