3N2U
 OpenBabel11252210453D

 57 58  0  0  1  0  0  0  0  0999 V2000
    7.9040   28.5920   -1.7230 C   0  0  1  0  0  0  0  0  0  0  0  0
    8.8460   23.3900    0.5350 N   0  0  0  0  0  0  0  0  0  0  0  0
    6.9130   24.5320    0.0760 O   0  0  0  0  0  0  0  0  0  0  0  0
    7.8780   26.3450    3.9430 S   0  0  0  0  0  0  0  0  0  0  0  0
    8.3380   27.6560   -2.8830 C   0  0  2  0  0  0  0  0  0  0  0  0
    7.6650   26.3960    2.2210 N   0  0  0  0  0  0  0  0  0  0  0  0
    9.2610   26.0090    4.2660 O   0  0  0  0  0  0  0  0  0  0  0  0
    7.9800   24.5400    0.6580 C   0  0  0  0  0  0  0  0  0  0  0  0
    7.3810   27.6000    4.5010 O   0  0  0  0  0  0  0  0  0  0  0  0
    5.1720   30.6210   -3.1810 C   0  0  0  0  0  0  0  0  0  0  0  0
    9.6270   27.1150   -2.6350 O   0  0  0  0  0  0  0  0  0  0  0  0
    6.5970   30.0180   -3.1800 C   0  0  2  0  0  0  0  0  0  0  0  0
    8.3540   27.3600   -5.2180 O   0  0  0  0  0  0  0  0  0  0  0  0
    6.9190   29.1530   -4.4190 C   0  0  1  0  0  0  0  0  0  0  0  0
    6.9510   29.9360   -5.6150 O   0  0  0  0  0  0  0  0  0  0  0  0
    8.2720   28.4070   -4.2390 C   0  0  1  0  0  0  0  0  0  0  0  0
    4.5250   21.9250    5.7780 O   0  0  0  0  0  0  0  0  0  0  0  0
    7.7180   28.4590    0.6700 C   0  0  0  0  0  0  0  0  0  0  0  0
    6.5850   29.1340   -2.0360 O   0  0  0  0  0  0  0  0  0  0  0  0
    6.9570   27.5800    1.6670 C   0  0  0  0  0  0  0  0  0  0  0  0
    4.2590   29.7570   -2.5000 O   0  0  0  0  0  0  0  0  0  0  0  0
    8.6610   25.6960    1.3920 C   0  0  0  0  0  0  0  0  0  0  0  0
    7.6090   27.7600   -0.6160 O   0  0  0  0  0  0  0  0  0  0  0  0
    6.4690   22.6910    4.7750 C   0  0  0  0  0  0  0  0  0  0  0  0
    8.2040   22.4180   -0.2780 O   0  0  0  0  0  0  0  0  0  0  0  0
    6.8310   25.0520    4.3600 C   0  0  0  0  0  0  0  0  0  0  0  0
    5.4960   25.3170    4.6970 C   0  0  0  0  0  0  0  0  0  0  0  0
    7.2950   23.7220    4.3560 C   0  0  0  0  0  0  0  0  0  0  0  0
    4.6530   24.3010    5.1450 C   0  0  0  0  0  0  0  0  0  0  0  0
    5.1660   22.9990    5.2400 C   0  0  0  0  0  0  0  0  0  0  0  0
    3.1410   22.0550    6.2070 C   0  0  0  0  0  0  0  0  0  0  0  0
    8.6050   29.4230   -1.4980 H   0  0  0  0  0  0  0  0  0  0  0  0
    9.1660   22.9010    1.4270 H   0  0  0  0  0  0  0  0  0  0  0  0
    7.6900   26.7460   -2.9190 H   0  0  0  0  0  0  0  0  0  0  0  0
    5.1930   31.6170   -2.6720 H   0  0  0  0  0  0  0  0  0  0  0  0
    4.7700   30.7150   -4.2170 H   0  0  0  0  0  0  0  0  0  0  0  0
   10.3040   27.8490   -2.5730 H   0  0  0  0  0  0  0  0  0  0  0  0
    7.3640   30.8190   -3.0320 H   0  0  0  0  0  0  0  0  0  0  0  0
    8.3910   27.7840   -6.1240 H   0  0  0  0  0  0  0  0  0  0  0  0
    6.0920   28.4290   -4.6300 H   0  0  0  0  0  0  0  0  0  0  0  0
    7.5520   30.7230   -5.4990 H   0  0  0  0  0  0  0  0  0  0  0  0
    9.1300   29.1150   -4.3590 H   0  0  0  0  0  0  0  0  0  0  0  0
    7.2290   29.4590    0.5870 H   0  0  0  0  0  0  0  0  0  0  0  0
    8.7980   28.5720    0.9070 H   0  0  0  0  0  0  0  0  0  0  0  0
    6.0200   27.2150    1.1640 H   0  0  0  0  0  0  0  0  0  0  0  0
    6.6430   28.2530    2.5230 H   0  0  0  0  0  0  0  0  0  0  0  0
    4.6500   29.5840   -1.5960 H   0  0  0  0  0  0  0  0  0  0  0  0
    9.1240   26.3650    0.6060 H   0  0  0  0  0  0  0  0  0  0  0  0
    9.5140   25.3180    2.0330 H   0  0  0  0  0  0  0  0  0  0  0  0
    6.8090   21.6560    4.7430 H   0  0  0  0  0  0  0  0  0  0  0  0
    8.6910   21.5060    0.0410 H   0  0  0  0  0  0  0  0  0  0  0  0
    5.0900   26.3340    4.6180 H   0  0  0  0  0  0  0  0  0  0  0  0
    8.3130   23.4840    4.0190 H   0  0  0  0  0  0  0  0  0  0  0  0
    3.6190   24.5260    5.3980 H   0  0  0  0  0  0  0  0  0  0  0  0
    2.9210   21.0020    6.5090 H   0  0  0  0  0  0  0  0  0  0  0  0
    2.5050   22.3740    5.3530 H   0  0  0  0  0  0  0  0  0  0  0  0
    3.0770   22.7520    7.0670 H   0  0  0  0  0  0  0  0  0  0  0  0
  1  5  1  0  0  0  0
  1 19  1  0  0  0  0
  1 23  1  0  0  0  0
  1 32  1  1  0  0  0
  2 25  1  0  0  0  0
  2  8  1  0  0  0  0
  2 33  1  0  0  0  0
  3  8  2  0  0  0  0
  4  6  1  0  0  0  0
  4  7  2  0  0  0  0
  4 26  1  0  0  0  0
  4  9  2  0  0  0  0
  5 16  1  0  0  0  0
  5 11  1  0  0  0  0
  5 34  1  6  0  0  0
  6 22  1  0  0  0  0
  6 20  1  0  0  0  0
  8 22  1  0  0  0  0
 10 21  1  0  0  0  0
 10 12  1  0  0  0  0
 10 35  1  0  0  0  0
 10 36  1  0  0  0  0
 11 37  1  0  0  0  0
 12 14  1  0  0  0  0
 12 19  1  0  0  0  0
 12 38  1  1  0  0  0
 13 16  1  0  0  0  0
 13 39  1  0  0  0  0
 14 15  1  0  0  0  0
 14 16  1  0  0  0  0
 14 40  1  6  0  0  0
 15 41  1  0  0  0  0
 16 42  1  1  0  0  0
 17 30  1  0  0  0  0
 17 31  1  0  0  0  0
 18 23  1  0  0  0  0
 18 20  1  0  0  0  0
 18 43  1  0  0  0  0
 18 44  1  0  0  0  0
 20 45  1  0  0  0  0
 20 46  1  0  0  0  0
 21 47  1  0  0  0  0
 22 48  1  0  0  0  0
 22 49  1  0  0  0  0
 24 28  2  0  0  0  0
 24 30  1  0  0  0  0
 24 50  1  0  0  0  0
 25 51  1  0  0  0  0
 26 28  1  0  0  0  0
 26 27  2  0  0  0  0
 27 29  1  0  0  0  0
 27 52  1  0  0  0  0
 28 53  1  0  0  0  0
 29 30  2  0  0  0  0
 29 54  1  0  0  0  0
 31 55  1  0  0  0  0
 31 56  1  0  0  0  0
 31 57  1  0  0  0  0
M  END
>  <lm5_entropy_jk>
36.459690472520535

>  <number_of_rotatable_bonds>
11

>  <deltaG_kcalmol>
-10.71

>  <charge>
0

$$$$
