1K1J
 OpenBabel11252210453D

 68 71  0  0  1  0  0  0  0  0999 V2000
    0.7150   21.7650   16.8990 C   0  0  0  0  0  0  0  0  0  0  0  0
    0.1650   21.1730   15.7390 C   0  0  0  0  0  0  0  0  0  0  0  0
    1.0060   20.8260   14.6590 C   0  0  0  0  0  0  0  0  0  0  0  0
    2.3890   21.0330   14.7640 C   0  0  0  0  0  0  0  0  0  0  0  0
    4.3250   21.8300   15.9950 C   0  0  0  0  0  0  0  0  0  0  0  0
    4.8810   22.4440   17.1310 C   0  0  0  0  0  0  0  0  0  0  0  0
    4.0430   22.8380   18.1870 C   0  0  0  0  0  0  0  0  0  0  0  0
    2.6570   22.6140   18.1150 C   0  0  0  0  0  0  0  0  0  0  0  0
    2.1010   21.9920   16.9800 C   0  0  0  0  0  0  0  0  0  0  0  0
    2.9400   21.6080   15.9160 C   0  0  0  0  0  0  0  0  0  0  0  0
   -1.6020   20.9710   15.6100 S   0  0  0  0  0  0  0  0  0  0  0  0
   -2.1130   13.7600   15.1220 C   0  0  0  0  0  0  0  0  0  0  0  0
   -1.9330   19.4430   16.1500 N   0  0  0  0  0  0  0  0  0  0  0  0
   -1.6670   19.0580   17.5770 C   0  0  1  0  0  0  0  0  0  0  0  0
   -2.0150   20.9170   14.2030 O   0  0  0  0  0  0  0  0  0  0  0  0
   -2.2650   21.8650   16.5730 O   0  0  0  0  0  0  0  0  0  0  0  0
   -2.7030   17.9500   17.9500 C   0  0  0  0  0  0  0  0  0  0  0  0
   -0.1950   18.6070   17.8380 C   0  0  0  0  0  0  0  0  0  0  0  0
    0.4960   18.2420   16.9000 O   0  0  0  0  0  0  0  0  0  0  0  0
    1.8640   20.1260   21.1070 C   0  0  1  0  0  0  0  0  0  0  0  0
   -1.7140   12.4610   14.9620 N   0  3  0  0  0  0  0  0  0  0  0  0
    2.6750   21.3800   21.5090 C   0  0  0  0  0  0  0  0  0  0  0  0
    2.2040   22.5040   21.6140 O   0  0  0  0  0  0  0  0  0  0  0  0
   -2.6980   14.3800   14.0590 N   0  0  0  0  0  0  0  0  0  0  0  0
    3.9790   21.0710   21.8060 O   0  0  0  0  0  0  0  0  0  0  0  0
   -1.9340   14.4860   16.4270 C   0  0  0  0  0  0  0  0  0  0  0  0
   -1.4090   13.8270   17.5660 C   0  0  0  0  0  0  0  0  0  0  0  0
   -1.2380   14.5130   18.7800 C   0  0  0  0  0  0  0  0  0  0  0  0
   -1.6310   15.8510   18.8930 C   0  0  0  0  0  0  0  0  0  0  0  0
   -2.1930   16.5180   17.7980 C   0  0  0  0  0  0  0  0  0  0  0  0
   -2.3110   15.8480   16.5720 C   0  0  0  0  0  0  0  0  0  0  0  0
   -0.3950   19.1470   20.3650 C   0  0  0  0  0  0  0  0  0  0  0  0
    0.3550   20.4260   20.8080 C   0  0  0  0  0  0  0  0  0  0  0  0
    2.4970   19.3530   19.9010 C   0  0  0  0  0  0  0  0  0  0  0  0
    1.6390   18.1390   19.4780 C   0  0  0  0  0  0  0  0  0  0  0  0
    0.2680   18.5740   19.1670 N   0  0  0  0  0  0  0  0  0  0  0  0
    4.9020   22.1230   22.2070 C   0  0  0  0  0  0  0  0  0  0  0  0
    4.5630   22.6190   23.1280 H   0  0  0  0  0  0  0  0  0  0  0  0
    0.0840   22.0810   17.7340 H   0  0  0  0  0  0  0  0  0  0  0  0
    0.6070   20.4170   13.7270 H   0  0  0  0  0  0  0  0  0  0  0  0
    3.0390   20.7620   13.9360 H   0  0  0  0  0  0  0  0  0  0  0  0
    4.9700   21.5340   15.1700 H   0  0  0  0  0  0  0  0  0  0  0  0
    5.9560   22.6220   17.1900 H   0  0  0  0  0  0  0  0  0  0  0  0
    4.4700   23.3210   19.0660 H   0  0  0  0  0  0  0  0  0  0  0  0
    2.0180   22.9260   18.9410 H   0  0  0  0  0  0  0  0  0  0  0  0
   -1.1820   19.0510   15.5760 H   0  0  0  0  0  0  0  0  0  0  0  0
   -1.8290   19.9280   18.2360 H   0  0  0  0  0  0  0  0  0  0  0  0
   -3.6120   18.0920   17.3490 H   0  0  0  0  0  0  0  0  0  0  0  0
    1.9180   19.4870   21.9960 H   0  0  0  0  0  0  0  0  0  0  0  0
   -1.3510   11.9470   15.7620 H   0  0  0  0  0  0  0  0  0  0  0  0
   -3.1420   13.7560   13.3820 H   0  0  0  0  0  0  0  0  0  0  0  0
   -1.1210   12.7820   17.5330 H   0  0  0  0  0  0  0  0  0  0  0  0
   -0.8080   14.0120   19.6490 H   0  0  0  0  0  0  0  0  0  0  0  0
   -1.4810   16.3700   19.8370 H   0  0  0  0  0  0  0  0  0  0  0  0
   -2.6980   16.4290   15.7440 H   0  0  0  0  0  0  0  0  0  0  0  0
   -1.4560   19.3630   20.1950 H   0  0  0  0  0  0  0  0  0  0  0  0
    0.2870   21.1890   20.0230 H   0  0  0  0  0  0  0  0  0  0  0  0
    3.5180   19.0280   20.1460 H   0  0  0  0  0  0  0  0  0  0  0  0
    1.6110   17.3740   20.2650 H   0  0  0  0  0  0  0  0  0  0  0  0
    4.9810   22.8930   21.4280 H   0  0  0  0  0  0  0  0  0  0  0  0
   -3.0400   18.0960   18.9820 H   0  0  0  0  0  0  0  0  0  0  0  0
   -2.1960   11.9050   14.2570 H   0  0  0  0  0  0  0  0  0  0  0  0
   -3.1390   15.2840   14.1970 H   0  0  0  0  0  0  0  0  0  0  0  0
   -0.3560   18.4080   21.1810 H   0  0  0  0  0  0  0  0  0  0  0  0
   -0.1240   20.8610   21.6990 H   0  0  0  0  0  0  0  0  0  0  0  0
    2.5920   20.0250   19.0370 H   0  0  0  0  0  0  0  0  0  0  0  0
    2.0830   17.6590   18.6000 H   0  0  0  0  0  0  0  0  0  0  0  0
    5.9100   21.7250   22.3870 H   0  0  0  0  0  0  0  0  0  0  0  0
  1  2  2  0  0  0  0
  1  9  1  0  0  0  0
  1 39  1  0  0  0  0
  2  3  1  0  0  0  0
  2 11  1  0  0  0  0
  3  4  2  0  0  0  0
  3 40  1  0  0  0  0
  4 10  1  0  0  0  0
  4 41  1  0  0  0  0
  5  6  2  0  0  0  0
  5 10  1  0  0  0  0
  5 42  1  0  0  0  0
  6  7  1  0  0  0  0
  6 43  1  0  0  0  0
  7  8  2  0  0  0  0
  7 44  1  0  0  0  0
  8  9  1  0  0  0  0
  8 45  1  0  0  0  0
  9 10  2  0  0  0  0
 11 13  1  0  0  0  0
 11 15  2  0  0  0  0
 11 16  2  0  0  0  0
 12 21  2  0  0  0  0
 12 24  1  0  0  0  0
 12 26  1  0  0  0  0
 13 14  1  0  0  0  0
 13 46  1  0  0  0  0
 14 17  1  0  0  0  0
 14 18  1  0  0  0  0
 14 47  1  1  0  0  0
 17 30  1  0  0  0  0
 17 48  1  0  0  0  0
 17 61  1  0  0  0  0
 18 19  2  0  0  0  0
 18 36  1  0  0  0  0
 20 22  1  0  0  0  0
 20 33  1  0  0  0  0
 20 34  1  0  0  0  0
 20 49  1  1  0  0  0
 21 50  1  0  0  0  0
 21 62  1  0  0  0  0
 22 23  2  0  0  0  0
 22 25  1  0  0  0  0
 24 51  1  0  0  0  0
 24 63  1  0  0  0  0
 25 37  1  0  0  0  0
 26 27  2  0  0  0  0
 26 31  1  0  0  0  0
 27 28  1  0  0  0  0
 27 52  1  0  0  0  0
 28 29  2  0  0  0  0
 28 53  1  0  0  0  0
 29 30  1  0  0  0  0
 29 54  1  0  0  0  0
 30 31  2  0  0  0  0
 31 55  1  0  0  0  0
 32 33  1  0  0  0  0
 32 36  1  0  0  0  0
 32 56  1  0  0  0  0
 32 64  1  0  0  0  0
 33 57  1  0  0  0  0
 33 65  1  0  0  0  0
 34 35  1  0  0  0  0
 34 58  1  0  0  0  0
 34 66  1  0  0  0  0
 35 36  1  0  0  0  0
 35 59  1  0  0  0  0
 35 67  1  0  0  0  0
 37 38  1  0  0  0  0
 37 60  1  0  0  0  0
 37 68  1  0  0  0  0
M  CHG  1  21   1
M  END
>  <deltaG_kcalmol>
-10.31

>  <charge>
1

>  <lm5_entropy_jk>
31.910199423359543

>  <number_of_rotatable_bonds>
10

$$$$
