05-14.pdb
 OpenBabel11252210453D

 86 88  0  0  1  0  0  0  0  0999 V2000
    8.4300   18.3710    8.9370 N   0  0  0  0  0  0  0  0  0  0  0  0
    7.3140   17.9110    9.7890 C   0  0  2  0  0  0  0  0  0  0  0  0
   12.8340   15.7630    7.7990 C   0  0  0  0  0  0  0  0  0  0  0  0
   11.5210   16.2410    7.1270 C   0  0  1  0  0  0  0  0  0  0  0  0
   11.2910   17.7590    7.4420 C   0  0  2  0  0  0  0  0  0  0  0  0
    9.9210   18.2860    6.9670 C   0  0  0  0  0  0  0  0  0  0  0  0
    8.7900   17.6710    7.7700 C   0  0  0  0  0  0  0  0  0  0  0  0
   10.9130   14.8660    5.1070 C   0  0  0  0  0  0  0  0  0  0  0  0
   13.1560   14.3070    7.5830 C   0  0  0  0  0  0  0  0  0  0  0  0
   13.6970   13.8500    6.4000 C   0  0  0  0  0  0  0  0  0  0  0  0
   14.1860   12.5140    6.2720 C   0  0  0  0  0  0  0  0  0  0  0  0
   14.1120   11.6410    7.3870 C   0  0  0  0  0  0  0  0  0  0  0  0
   13.4260   12.0900    8.5600 C   0  0  0  0  0  0  0  0  0  0  0  0
   12.9670   13.3790    8.6570 C   0  0  0  0  0  0  0  0  0  0  0  0
   11.0710   14.7680    3.5980 C   0  0  0  0  0  0  0  0  0  0  0  0
    3.4980   17.6630    9.0600 C   0  0  0  0  0  0  0  0  0  0  0  0
    9.7100   14.9420    2.9040 C   0  0  0  0  0  0  0  0  0  0  0  0
    8.9670   16.2140    3.3490 C   0  0  0  0  0  0  0  0  0  0  0  0
    7.5140   16.2320    2.8460 C   0  0  0  0  0  0  0  0  0  0  0  0
    6.5310   16.8010    3.8870 C   0  0  0  0  0  0  0  0  0  0  0  0
    5.1080   16.2810    3.6310 C   0  0  0  0  0  0  0  0  0  0  0  0
    3.0020   16.4060    8.3130 C   0  0  0  0  0  0  0  0  0  0  0  0
    5.9590   18.2700    9.1310 C   0  0  0  0  0  0  0  0  0  0  0  0
    5.8220   19.1790    8.3270 O   0  0  0  0  0  0  0  0  0  0  0  0
   11.5120   16.0130    5.6730 N   0  0  0  0  0  0  0  0  0  0  0  0
    4.8800   17.5110    9.5790 N   0  0  0  0  0  0  0  0  0  0  0  0
    7.4580   18.4890   11.2300 C   0  0  0  0  0  0  0  0  0  0  0  0
    2.8600   16.6010    6.7960 C   0  0  0  0  0  0  0  0  0  0  0  0
    4.1790   16.4200    6.0270 C   0  0  0  0  0  0  0  0  0  0  0  0
    4.0420   16.8760    4.5650 C   0  0  0  0  0  0  0  0  0  0  0  0
   14.7960   12.0510    5.0610 C   0  0  0  0  0  0  0  0  0  0  0  0
   15.3480   10.7960    4.9980 C   0  0  0  0  0  0  0  0  0  0  0  0
   15.3420    9.9480    6.1440 C   0  0  0  0  0  0  0  0  0  0  0  0
   14.7480   10.3630    7.3090 C   0  0  0  0  0  0  0  0  0  0  0  0
    8.2570   16.6120    7.4850 O   0  0  0  0  0  0  0  0  0  0  0  0
   10.2870   14.0730    5.7900 O   0  0  0  0  0  0  0  0  0  0  0  0
   12.2700   18.5360    6.7220 O   0  0  0  0  0  0  0  0  0  0  0  0
    6.7060   17.6230   12.2500 C   0  0  0  0  0  0  0  0  0  0  0  0
    7.0370   19.9570   11.3180 C   0  0  0  0  0  0  0  0  0  0  0  0
    7.6010   20.5640   10.5790 H   0  0  0  0  0  0  0  0  0  0  0  0
    8.7400   19.3470    9.0760 H   0  0  0  0  0  0  0  0  0  0  0  0
    7.3840   16.7970    9.8890 H   0  0  0  0  0  0  0  0  0  0  0  0
   12.7500   15.9810    8.8950 H   0  0  0  0  0  0  0  0  0  0  0  0
   10.6650   15.6680    7.5760 H   0  0  0  0  0  0  0  0  0  0  0  0
   11.4210   17.9440    8.5350 H   0  0  0  0  0  0  0  0  0  0  0  0
    9.7780   18.0340    5.8840 H   0  0  0  0  0  0  0  0  0  0  0  0
   13.7940   14.5010    5.5340 H   0  0  0  0  0  0  0  0  0  0  0  0
   13.2790   11.3890    9.3830 H   0  0  0  0  0  0  0  0  0  0  0  0
   12.4690   13.7230    9.5660 H   0  0  0  0  0  0  0  0  0  0  0  0
   11.4880   13.7640    3.3380 H   0  0  0  0  0  0  0  0  0  0  0  0
    3.4460   18.5650    8.3960 H   0  0  0  0  0  0  0  0  0  0  0  0
    9.0890   14.0440    3.1210 H   0  0  0  0  0  0  0  0  0  0  0  0
    9.5130   17.1040    2.9590 H   0  0  0  0  0  0  0  0  0  0  0  0
    7.2010   15.1940    2.5950 H   0  0  0  0  0  0  0  0  0  0  0  0
    6.5400   17.9110    3.8230 H   0  0  0  0  0  0  0  0  0  0  0  0
    5.0990   15.1710    3.7270 H   0  0  0  0  0  0  0  0  0  0  0  0
    1.9960   16.1400    8.7270 H   0  0  0  0  0  0  0  0  0  0  0  0
   12.2170   16.5400    5.1450 H   0  0  0  0  0  0  0  0  0  0  0  0
    5.0550   16.6160   10.0720 H   0  0  0  0  0  0  0  0  0  0  0  0
    8.5420   18.4000   11.4900 H   0  0  0  0  0  0  0  0  0  0  0  0
    2.4420   17.6170    6.5940 H   0  0  0  0  0  0  0  0  0  0  0  0
    4.4690   15.3460    6.0580 H   0  0  0  0  0  0  0  0  0  0  0  0
    3.0430   16.5640    4.1740 H   0  0  0  0  0  0  0  0  0  0  0  0
   14.8220   12.7170    4.1930 H   0  0  0  0  0  0  0  0  0  0  0  0
   15.8170   10.4330    4.0780 H   0  0  0  0  0  0  0  0  0  0  0  0
   15.8280    8.9700    6.0820 H   0  0  0  0  0  0  0  0  0  0  0  0
   14.7940    9.7370    8.2020 H   0  0  0  0  0  0  0  0  0  0  0  0
   12.8530   19.0340    7.4010 H   0  0  0  0  0  0  0  0  0  0  0  0
    7.0350   16.5640   12.1740 H   0  0  0  0  0  0  0  0  0  0  0  0
    7.2300   20.3500   12.3410 H   0  0  0  0  0  0  0  0  0  0  0  0
   13.6820   16.3800    7.4110 H   0  0  0  0  0  0  0  0  0  0  0  0
    9.9230   19.3980    7.0590 H   0  0  0  0  0  0  0  0  0  0  0  0
   11.7800   15.5350    3.2090 H   0  0  0  0  0  0  0  0  0  0  0  0
    2.8440   17.8370    9.9600 H   0  0  0  0  0  0  0  0  0  0  0  0
    9.8890   14.9950    1.8020 H   0  0  0  0  0  0  0  0  0  0  0  0
    8.9630   16.2690    4.4630 H   0  0  0  0  0  0  0  0  0  0  0  0
    7.4550   16.8370    1.9130 H   0  0  0  0  0  0  0  0  0  0  0  0
    6.8470   16.4970    4.9110 H   0  0  0  0  0  0  0  0  0  0  0  0
    4.8300   16.5340    2.5820 H   0  0  0  0  0  0  0  0  0  0  0  0
    3.6850   15.5470    8.5250 H   0  0  0  0  0  0  0  0  0  0  0  0
    2.1190   15.8520    6.4180 H   0  0  0  0  0  0  0  0  0  0  0  0
    4.9830   17.0110    6.5200 H   0  0  0  0  0  0  0  0  0  0  0  0
    4.0960   17.9890    4.5200 H   0  0  0  0  0  0  0  0  0  0  0  0
    5.6050   17.6710   12.0980 H   0  0  0  0  0  0  0  0  0  0  0  0
    5.9480   20.0660   11.1180 H   0  0  0  0  0  0  0  0  0  0  0  0
    6.9220   17.9900   13.2790 H   0  0  0  0  0  0  0  0  0  0  0  0
  1 41  1  0  0  0  0
  1  2  1  0  0  0  0
  2 42  1  1  0  0  0
  2 27  1  0  0  0  0
  3 43  1  0  0  0  0
  4  5  1  0  0  0  0
  4 44  1  1  0  0  0
  4  3  1  0  0  0  0
  5 45  1  1  0  0  0
  6  5  1  0  0  0  0
  6  7  1  0  0  0  0
  7  1  1  0  0  0  0
  8 25  1  0  0  0  0
  8 36  2  0  0  0  0
  9  3  1  0  0  0  0
  9 14  2  0  0  0  0
 10 11  2  0  0  0  0
 10  9  1  0  0  0  0
 11 12  1  0  0  0  0
 12 34  1  0  0  0  0
 12 13  2  0  0  0  0
 13 48  1  0  0  0  0
 14 13  1  0  0  0  0
 14 49  1  0  0  0  0
 15  8  1  0  0  0  0
 16 26  1  0  0  0  0
 16 74  1  0  0  0  0
 17 18  1  0  0  0  0
 17 15  1  0  0  0  0
 18 53  1  0  0  0  0
 18 76  1  0  0  0  0
 19 18  1  0  0  0  0
 19 20  1  0  0  0  0
 20 78  1  0  0  0  0
 21 20  1  0  0  0  0
 21 30  1  0  0  0  0
 22 57  1  0  0  0  0
 22 80  1  0  0  0  0
 22 16  1  0  0  0  0
 23 26  1  0  0  0  0
 23  2  1  0  0  0  0
 24 23  2  0  0  0  0
 25  4  1  0  0  0  0
 26 59  1  0  0  0  0
 27 60  1  0  0  0  0
 27 38  1  0  0  0  0
 28 22  1  0  0  0  0
 29 28  1  0  0  0  0
 29 82  1  0  0  0  0
 30 83  1  0  0  0  0
 30 29  1  0  0  0  0
 31 32  2  0  0  0  0
 31 11  1  0  0  0  0
 32 33  1  0  0  0  0
 33 66  1  0  0  0  0
 33 34  2  0  0  0  0
 34 67  1  0  0  0  0
 35  7  2  0  0  0  0
 37  5  1  0  0  0  0
 37 68  1  0  0  0  0
 38 69  1  0  0  0  0
 38 86  1  0  0  0  0
 39 27  1  0  0  0  0
 39 70  1  0  0  0  0
 40 39  1  0  0  0  0
 46  6  1  0  0  0  0
 47 10  1  0  0  0  0
 50 15  1  0  0  0  0
 51 16  1  0  0  0  0
 52 17  1  0  0  0  0
 54 19  1  0  0  0  0
 55 20  1  0  0  0  0
 56 21  1  0  0  0  0
 58 25  1  0  0  0  0
 61 28  1  0  0  0  0
 62 29  1  0  0  0  0
 63 30  1  0  0  0  0
 64 31  1  0  0  0  0
 65 32  1  0  0  0  0
 71  3  1  0  0  0  0
 72  6  1  0  0  0  0
 73 15  1  0  0  0  0
 75 17  1  0  0  0  0
 77 19  1  0  0  0  0
 79 21  1  0  0  0  0
 81 28  1  0  0  0  0
 84 38  1  0  0  0  0
 85 39  1  0  0  0  0
M  END
>  <IC50_NM>
0.6

>  <number_of_rotatable_bonds>
3

>  <charge>
0

>  <lm5_entropy_jk>
30.51387600249522

$$$$
