3rk5.pdb
 OpenBabel11252210453D

 35 37  0  0  1  0  0  0  0  0999 V2000
   64.2790  154.6730  -48.4740 N   0  0  0  0  0  0  0  0  0  0  0  0
   65.7490  154.4180  -50.3080 N   0  0  0  0  0  0  0  0  0  0  0  0
   67.3040  153.5980  -51.9470 N   0  0  0  0  0  0  0  0  0  0  0  0
   70.7560  150.1070  -47.4030 N   0  0  0  0  0  0  0  0  0  0  0  0
   63.7460  154.5630  -47.1330 C   0  0  0  0  0  0  0  0  0  0  0  0
   65.3880  154.1230  -49.0140 C   0  0  0  0  0  0  0  0  0  0  0  0
   66.8550  153.6260  -50.6620 C   0  0  0  0  0  0  0  0  0  0  0  0
   67.4250  152.8130  -49.6400 C   0  0  0  0  0  0  0  0  0  0  0  0
   68.5250  151.9410  -49.8210 C   0  0  0  0  0  0  0  0  0  0  0  0
   68.9240  151.0160  -48.7100 C   0  0  0  0  0  0  0  0  0  0  0  0
   68.0370  150.0910  -48.1530 C   0  0  0  0  0  0  0  0  0  0  0  0
   68.5250  149.1720  -47.2190 C   0  0  0  0  0  0  0  0  0  0  0  0
   69.8850  149.1950  -46.8820 C   0  0  0  0  0  0  0  0  0  0  0  0
   70.2720  151.0080  -48.2930 C   0  0  0  0  0  0  0  0  0  0  0  0
   63.1010  155.7150  -46.6450 C   0  0  0  0  0  0  0  0  0  0  0  0
   62.5270  155.6970  -45.3750 C   0  0  0  0  0  0  0  0  0  0  0  0
   62.5690  154.5340  -44.5890 C   0  0  0  0  0  0  0  0  0  0  0  0
   63.1860  153.3890  -45.1010 C   0  0  0  0  0  0  0  0  0  0  0  0
   63.7790  153.3900  -46.3750 C   0  0  0  0  0  0  0  0  0  0  0  0
   61.9240  154.5560  -43.1840 C   0  0  0  0  0  0  0  0  0  0  0  0
   69.1840  151.8900  -50.8630 O   0  0  0  0  0  0  0  0  0  0  0  0
   60.7710  155.0160  -43.1040 O   0  0  0  0  0  0  0  0  0  0  0  0
   62.6070  154.1390  -42.2330 O   0  5  0  0  0  0  0  0  0  0  0  0
   66.5040  152.9260  -48.1830 S   0  0  0  0  0  0  0  0  0  0  0  0
   63.6980  155.2800  -49.1090 H   0  0  0  0  0  0  0  0  0  0  0  0
   66.9290  154.2260  -52.6770 H   0  0  0  0  0  0  0  0  0  0  0  0
   68.1600  153.0660  -52.1690 H   0  0  0  0  0  0  0  0  0  0  0  0
   66.9800  150.0650  -48.4350 H   0  0  0  0  0  0  0  0  0  0  0  0
   67.8590  148.4380  -46.7570 H   0  0  0  0  0  0  0  0  0  0  0  0
   70.2900  148.4620  -46.1710 H   0  0  0  0  0  0  0  0  0  0  0  0
   70.9780  151.7520  -48.6900 H   0  0  0  0  0  0  0  0  0  0  0  0
   63.0290  156.6070  -47.2680 H   0  0  0  0  0  0  0  0  0  0  0  0
   62.0410  156.6110  -45.0190 H   0  0  0  0  0  0  0  0  0  0  0  0
   63.2280  152.4600  -44.5230 H   0  0  0  0  0  0  0  0  0  0  0  0
   64.2380  152.4780  -46.7600 H   0  0  0  0  0  0  0  0  0  0  0  0
  1  5  1  0  0  0  0
  1  6  1  0  0  0  0
  1 25  1  0  0  0  0
  2  6  2  0  0  0  0
  2  7  1  0  0  0  0
  3  7  1  0  0  0  0
  3 26  1  0  0  0  0
  3 27  1  0  0  0  0
  4 13  2  0  0  0  0
  4 14  1  0  0  0  0
  5 15  2  0  0  0  0
  5 19  1  0  0  0  0
  6 24  1  0  0  0  0
  7  8  2  0  0  0  0
  8 24  1  0  0  0  0
  9  8  1  0  0  0  0
  9 10  1  0  0  0  0
  9 21  2  0  0  0  0
 10 11  1  0  0  0  0
 10 14  2  0  0  0  0
 11 12  2  0  0  0  0
 11 28  1  0  0  0  0
 12 13  1  0  0  0  0
 12 29  1  0  0  0  0
 13 30  1  0  0  0  0
 14 31  1  0  0  0  0
 15 16  1  0  0  0  0
 15 32  1  0  0  0  0
 16 17  2  0  0  0  0
 16 33  1  0  0  0  0
 17 18  1  0  0  0  0
 17 20  1  0  0  0  0
 18 19  2  0  0  0  0
 18 34  1  0  0  0  0
 19 35  1  0  0  0  0
 20 22  2  0  0  0  0
 20 23  1  0  0  0  0
M  CHG  1  23  -1
M  END
>  <lm5_entropy_jk>
20.582349174783765

>  <number_of_rotatable_bonds>
5

>  <IC50_NM>
4000

>  <charge>
-1

$$$$
