3S0O
 OpenBabel11252210453D

 30 31  0  0  1  0  0  0  0  0999 V2000
   65.6500  154.5980  -50.2250 N   0  0  0  0  0  0  0  0  0  0  0  0
   67.2260  153.5420  -51.5450 N   0  0  0  0  0  0  0  0  0  0  0  0
   67.8230  151.4960  -46.6920 N   0  0  0  0  0  0  0  0  0  0  0  0
   64.1970  155.4100  -48.5980 N   0  0  0  0  0  0  0  0  0  0  0  0
   66.6630  153.6820  -50.3410 C   0  0  0  0  0  0  0  0  0  0  0  0
   66.9810  152.9580  -49.2280 C   0  0  0  0  0  0  0  0  0  0  0  0
   68.0590  151.9400  -49.1700 C   0  0  0  0  0  0  0  0  0  0  0  0
   68.2720  151.0760  -47.9040 C   0  0  0  0  0  0  0  0  0  0  0  0
   68.0060  150.7320  -45.5960 C   0  0  0  0  0  0  0  0  0  0  0  0
   68.6680  149.4980  -45.6460 C   0  0  0  0  0  0  0  0  0  0  0  0
   69.1580  149.0410  -46.8770 C   0  0  0  0  0  0  0  0  0  0  0  0
   68.9580  149.8430  -48.0150 C   0  0  0  0  0  0  0  0  0  0  0  0
   65.1720  154.5440  -48.9980 C   0  0  0  0  0  0  0  0  0  0  0  0
   63.6010  155.4420  -47.2390 C   0  0  0  0  0  0  0  0  0  0  0  0
   62.6780  154.2650  -47.0420 C   0  0  0  0  0  0  0  0  0  0  0  0
   62.4040  153.7730  -45.8300 C   0  0  0  0  0  0  0  0  0  0  0  0
   68.7750  151.7700  -50.1490 O   0  0  0  0  0  0  0  0  0  0  0  0
   65.8130  153.2880  -47.9760 S   0  0  0  0  0  0  0  0  0  0  0  0
   67.0220  154.2020  -52.2870 H   0  0  0  0  0  0  0  0  0  0  0  0
   68.0310  152.9310  -51.5690 H   0  0  0  0  0  0  0  0  0  0  0  0
   67.6050  151.1200  -44.6530 H   0  0  0  0  0  0  0  0  0  0  0  0
   68.7910  148.9010  -44.7430 H   0  0  0  0  0  0  0  0  0  0  0  0
   69.6750  148.0830  -46.9450 H   0  0  0  0  0  0  0  0  0  0  0  0
   69.3220  149.5110  -48.9860 H   0  0  0  0  0  0  0  0  0  0  0  0
   63.6310  155.7550  -49.3720 H   0  0  0  0  0  0  0  0  0  0  0  0
   63.0370  156.3760  -47.0870 H   0  0  0  0  0  0  0  0  0  0  0  0
   64.3880  155.4220  -46.4740 H   0  0  0  0  0  0  0  0  0  0  0  0
   62.2530  153.8220  -47.9480 H   0  0  0  0  0  0  0  0  0  0  0  0
   62.8280  154.2040  -44.9220 H   0  0  0  0  0  0  0  0  0  0  0  0
   61.7580  152.9100  -45.6930 H   0  0  0  0  0  0  0  0  0  0  0  0
  1  5  1  0  0  0  0
  1 13  2  0  0  0  0
  2  5  1  0  0  0  0
  2 19  1  0  0  0  0
  2 20  1  0  0  0  0
  3  8  2  0  0  0  0
  3  9  1  0  0  0  0
  4 13  1  0  0  0  0
  4 14  1  0  0  0  0
  4 25  1  0  0  0  0
  5  6  2  0  0  0  0
  6 18  1  0  0  0  0
  7  6  1  0  0  0  0
  7  8  1  0  0  0  0
  7 17  2  0  0  0  0
  8 12  1  0  0  0  0
  9 10  2  0  0  0  0
  9 21  1  0  0  0  0
 10 11  1  0  0  0  0
 10 22  1  0  0  0  0
 11 12  2  0  0  0  0
 11 23  1  0  0  0  0
 12 24  1  0  0  0  0
 13 18  1  0  0  0  0
 14 15  1  0  0  0  0
 14 26  1  0  0  0  0
 14 27  1  0  0  0  0
 15 16  2  0  0  0  0
 15 28  1  0  0  0  0
 16 29  1  0  0  0  0
 16 30  1  0  0  0  0
M  END
>  <lm5_entropy_jk>
21.884956070842478

>  <number_of_rotatable_bonds>
5

>  <IC50_NM>
33000

>  <charge>
0

$$$$
