3S0O
 OpenBabel11252210453D

 30 31  0  0  1  0  0  0  0  0999 V2000
   66.0140  154.1320  -50.2180 N   0  0  0  0  0  0  0  0  0  0  0  0
   67.7270  153.2330  -51.4630 N   0  0  0  0  0  0  0  0  0  0  0  0
   68.4160  151.3580  -46.6070 N   0  0  0  0  0  0  0  0  0  0  0  0
   64.3370  154.7420  -48.7540 N   0  0  0  0  0  0  0  0  0  0  0  0
   67.0710  153.2710  -50.3000 C   0  0  0  0  0  0  0  0  0  0  0  0
   67.3300  152.5080  -49.2010 C   0  0  0  0  0  0  0  0  0  0  0  0
   68.4020  151.4960  -49.1150 C   0  0  0  0  0  0  0  0  0  0  0  0
   68.6060  150.7260  -47.7960 C   0  0  0  0  0  0  0  0  0  0  0  0
   68.5650  150.6820  -45.4510 C   0  0  0  0  0  0  0  0  0  0  0  0
   68.9290  149.3280  -45.4190 C   0  0  0  0  0  0  0  0  0  0  0  0
   69.1630  148.6570  -46.6280 C   0  0  0  0  0  0  0  0  0  0  0  0
   69.0050  149.3710  -47.8300 C   0  0  0  0  0  0  0  0  0  0  0  0
   65.4480  154.0070  -49.0350 C   0  0  0  0  0  0  0  0  0  0  0  0
   63.6430  154.9180  -47.4560 C   0  0  0  0  0  0  0  0  0  0  0  0
   62.8380  153.7050  -47.0780 C   0  0  0  0  0  0  0  0  0  0  0  0
   62.3800  153.5380  -45.8350 C   0  0  0  0  0  0  0  0  0  0  0  0
   69.0980  151.2540  -50.0920 O   0  0  0  0  0  0  0  0  0  0  0  0
   66.1240  152.8020  -47.9720 S   0  0  0  0  0  0  0  0  0  0  0  0
   67.3540  153.7360  -52.2560 H   0  0  0  0  0  0  0  0  0  0  0  0
   68.4310  152.5110  -51.5430 H   0  0  0  0  0  0  0  0  0  0  0  0
   68.3730  151.2380  -44.5270 H   0  0  0  0  0  0  0  0  0  0  0  0
   69.0150  148.8050  -44.4660 H   0  0  0  0  0  0  0  0  0  0  0  0
   69.4480  147.6040  -46.6260 H   0  0  0  0  0  0  0  0  0  0  0  0
   69.1710  148.8820  -48.7880 H   0  0  0  0  0  0  0  0  0  0  0  0
   63.9570  155.2490  -49.5510 H   0  0  0  0  0  0  0  0  0  0  0  0
   62.9630  155.7840  -47.5150 H   0  0  0  0  0  0  0  0  0  0  0  0
   64.3550  155.1490  -46.6600 H   0  0  0  0  0  0  0  0  0  0  0  0
   62.6410  152.9750  -47.8660 H   0  0  0  0  0  0  0  0  0  0  0  0
   62.5740  154.2660  -45.0470 H   0  0  0  0  0  0  0  0  0  0  0  0
   61.8080  152.6610  -45.5460 H   0  0  0  0  0  0  0  0  0  0  0  0
  1  5  1  0  0  0  0
  1 13  2  0  0  0  0
  2  5  1  0  0  0  0
  2 19  1  0  0  0  0
  2 20  1  0  0  0  0
  3  8  2  0  0  0  0
  3  9  1  0  0  0  0
  4 13  1  0  0  0  0
  4 14  1  0  0  0  0
  4 25  1  0  0  0  0
  5  6  2  0  0  0  0
  6 18  1  0  0  0  0
  7  6  1  0  0  0  0
  7  8  1  0  0  0  0
  7 17  2  0  0  0  0
  8 12  1  0  0  0  0
  9 10  2  0  0  0  0
  9 21  1  0  0  0  0
 10 11  1  0  0  0  0
 10 22  1  0  0  0  0
 11 12  2  0  0  0  0
 11 23  1  0  0  0  0
 12 24  1  0  0  0  0
 13 18  1  0  0  0  0
 14 15  1  0  0  0  0
 14 26  1  0  0  0  0
 14 27  1  0  0  0  0
 15 16  2  0  0  0  0
 15 28  1  0  0  0  0
 16 29  1  0  0  0  0
 16 30  1  0  0  0  0
M  END
>  <lm5_entropy_jk>
21.884956070842478

>  <number_of_rotatable_bonds>
5

>  <IC50_NM>
33000

>  <charge>
0

$$$$
