2IKJ
 OpenBabel11252210453D

 37 38  0  0  0  0  0  0  0  0999 V2000
   17.1690   -4.5300   11.2910 C   0  0  0  0  0  0  0  0  0  0  0  0
   17.8200   -3.5090   10.4250 N   0  3  0  0  0  0  0  0  0  0  0  0
   17.1220   -2.9000    9.6160 O   0  5  0  0  0  0  0  0  0  0  0  0
   19.0510   -3.5230   10.3860 O   0  0  0  0  0  0  0  0  0  0  0  0
   17.9320   -5.1860   12.2820 C   0  0  0  0  0  0  0  0  0  0  0  0
   17.3630   -6.1800   13.0900 C   0  0  0  0  0  0  0  0  0  0  0  0
   18.2360   -6.8940   14.1270 C   0  0  0  0  0  0  0  0  0  0  0  0
   17.4790   -7.7560   15.0580 N   0  0  0  0  0  0  0  0  0  0  0  0
   17.5060   -9.1290   15.0840 C   0  0  0  0  0  0  0  0  0  0  0  0
   16.6830   -9.8020   16.1280 C   0  0  0  0  0  0  0  0  0  0  0  0
   16.3630  -11.1600   15.9430 C   0  0  0  0  0  0  0  0  0  0  0  0
   15.6080  -11.8330   16.9080 C   0  0  0  0  0  0  0  0  0  0  0  0
   15.1420  -11.1530   18.0280 C   0  0  0  0  0  0  0  0  0  0  0  0
   14.3570  -12.0400   19.3000 Cl  0  0  0  0  0  0  0  0  0  0  0  0
   15.4180   -9.7970   18.1900 C   0  0  0  0  0  0  0  0  0  0  0  0
   16.2340   -9.1270   17.2750 C   0  0  0  0  0  0  0  0  0  0  0  0
   16.7210   -7.8600   17.5440 O   0  0  0  0  0  0  0  0  0  0  0  0
   16.4460   -7.0050   18.6990 C   0  0  0  0  0  0  0  0  0  0  0  0
   15.3490   -5.9730   18.4990 C   0  0  0  0  0  0  0  0  0  0  0  0
   14.9040   -5.4730   19.5210 O   0  0  0  0  0  0  0  0  0  0  0  0
   14.8980   -5.7830   17.3870 O   0  5  0  0  0  0  0  0  0  0  0  0
   18.1410   -9.7820   14.2770 O   0  0  0  0  0  0  0  0  0  0  0  0
   16.0050   -6.4930   12.9210 C   0  0  0  0  0  0  0  0  0  0  0  0
   15.2230   -5.8270   11.9600 C   0  0  0  0  0  0  0  0  0  0  0  0
   15.8010   -4.8430   11.1420 C   0  0  0  0  0  0  0  0  0  0  0  0
   16.2030   -7.5700   19.5970 H   0  0  0  0  0  0  0  0  0  0  0  0
   17.3310   -6.4120   18.9370 H   0  0  0  0  0  0  0  0  0  0  0  0
   16.9550   -7.3450   15.8290 H   0  0  0  0  0  0  0  0  0  0  0  0
   18.9850   -7.5170   13.6230 H   0  0  0  0  0  0  0  0  0  0  0  0
   18.7910   -6.1410   14.7050 H   0  0  0  0  0  0  0  0  0  0  0  0
   18.9740   -4.9200   12.4280 H   0  0  0  0  0  0  0  0  0  0  0  0
   15.1860   -4.3220   10.4070 H   0  0  0  0  0  0  0  0  0  0  0  0
   14.1630   -6.0620   11.8620 H   0  0  0  0  0  0  0  0  0  0  0  0
   15.5540   -7.2500   13.5510 H   0  0  0  0  0  0  0  0  0  0  0  0
   15.0670   -9.2910   19.0740 H   0  0  0  0  0  0  0  0  0  0  0  0
   15.3950  -12.8950   16.7930 H   0  0  0  0  0  0  0  0  0  0  0  0
   16.7130  -11.7000   15.0600 H   0  0  0  0  0  0  0  0  0  0  0  0
  1  5  1  0  0  0  0
  2  4  2  0  0  0  0
  2  1  1  0  0  0  0
  3  2  1  0  0  0  0
  5 31  1  0  0  0  0
  5  6  2  0  0  0  0
  6  7  1  0  0  0  0
  7 30  1  0  0  0  0
  7  8  1  0  0  0  0
  8  9  1  0  0  0  0
  8 28  1  0  0  0  0
  9 10  1  0  0  0  0
 10 16  1  0  0  0  0
 11 10  2  0  0  0  0
 11 12  1  0  0  0  0
 12 13  2  0  0  0  0
 13 15  1  0  0  0  0
 13 14  1  0  0  0  0
 15 35  1  0  0  0  0
 16 17  1  0  0  0  0
 16 15  2  0  0  0  0
 17 18  1  0  0  0  0
 18 27  1  0  0  0  0
 18 26  1  0  0  0  0
 19 18  1  0  0  0  0
 19 20  2  0  0  0  0
 21 19  1  0  0  0  0
 22  9  2  0  0  0  0
 23  6  1  0  0  0  0
 23 34  1  0  0  0  0
 24 23  2  0  0  0  0
 25  1  2  0  0  0  0
 25 24  1  0  0  0  0
 29  7  1  0  0  0  0
 32 25  1  0  0  0  0
 33 24  1  0  0  0  0
 36 12  1  0  0  0  0
 37 11  1  0  0  0  0
M  CHG  3   2   1   3  -1  21  -1
M  END
>  <lm5_entropy_jk>
26.811197289937112

>  <number_of_rotatable_bonds>
8

>  <deltaG_kcalmol>
-10.09

>  <charge>
-1

$$$$
