6T0P
 OpenBabel11252210453D

 54 56  0  0  1  0  0  0  0  0999 V2000
   -0.5470   20.7430   15.6480 N   0  3  0  0  0  0  0  0  0  0  0  0
    0.8820   20.8790   16.2250 C   0  0  2  0  0  0  0  0  0  0  0  0
   -0.3410   18.4900   19.8620 O   0  0  0  0  0  0  0  0  0  0  0  0
    1.8680   21.0020   15.0470 C   0  0  0  0  0  0  0  0  0  0  0  0
    1.7440   19.7950   18.3230 N   0  0  0  0  0  0  0  0  0  0  0  0
    0.9140   18.5030   16.6640 O   0  0  0  0  0  0  0  0  0  0  0  0
    3.2400   21.4910   15.4480 C   0  0  0  0  0  0  0  0  0  0  0  0
    0.7070   16.5220   19.3330 N   0  0  0  0  0  0  0  0  0  0  0  0
    4.3790   20.7400   15.1350 C   0  0  0  0  0  0  0  0  0  0  0  0
   -2.4730   15.5930   15.4780 N   0  3  0  0  0  0  0  0  0  0  0  0
    5.6540   21.2490   15.4110 C   0  0  0  0  0  0  0  0  0  0  0  0
   -2.0110   13.2770   15.1730 N   0  0  0  0  0  0  0  0  0  0  0  0
    5.7960   22.5000   16.0160 C   0  0  0  0  0  0  0  0  0  0  0  0
    4.6570   23.2490   16.3390 C   0  0  0  0  0  0  0  0  0  0  0  0
    3.3850   22.7530   16.0470 C   0  0  0  0  0  0  0  0  0  0  0  0
    1.1790   19.6330   17.0890 C   0  0  0  0  0  0  0  0  0  0  0  0
    2.0140   18.6210   19.2120 C   0  0  2  0  0  0  0  0  0  0  0  0
    0.6660   17.9060   19.5040 C   0  0  0  0  0  0  0  0  0  0  0  0
   -0.4800   15.6470   19.3160 C   0  0  0  0  0  0  0  0  0  0  0  0
   -1.1250   15.5920   17.9410 C   0  0  0  0  0  0  0  0  0  0  0  0
   -1.6790   16.7980   17.4010 C   0  0  0  0  0  0  0  0  0  0  0  0
   -2.3250   16.7880   16.1980 C   0  0  0  0  0  0  0  0  0  0  0  0
   -1.9340   14.4010   15.9530 C   0  0  0  0  0  0  0  0  0  0  0  0
   -1.2490   14.4250   17.2160 C   0  0  0  0  0  0  0  0  0  0  0  0
    2.6480   19.1990   20.4930 C   0  0  0  0  0  0  0  0  0  0  0  0
    2.8490   20.7110   20.2730 C   0  0  0  0  0  0  0  0  0  0  0  0
    2.1280   21.0920   18.9670 C   0  0  0  0  0  0  0  0  0  0  0  0
   -0.7810   21.6210   15.0870 H   0  0  0  0  0  0  0  0  0  0  0  0
   -1.2620   20.6610   16.4250 H   0  0  0  0  0  0  0  0  0  0  0  0
   -0.6170   19.8920   15.0080 H   0  0  0  0  0  0  0  0  0  0  0  0
    0.8680   21.8350   16.8290 H   0  0  0  0  0  0  0  0  0  0  0  0
    1.4530   21.7560   14.3150 H   0  0  0  0  0  0  0  0  0  0  0  0
    1.9370   20.0200   14.5160 H   0  0  0  0  0  0  0  0  0  0  0  0
    1.6070   16.0520   19.1470 H   0  0  0  0  0  0  0  0  0  0  0  0
    4.2800   19.7650   14.6590 H   0  0  0  0  0  0  0  0  0  0  0  0
    6.5350   20.6550   15.1440 H   0  0  0  0  0  0  0  0  0  0  0  0
   -2.6920   13.2020   14.3730 H   0  0  0  0  0  0  0  0  0  0  0  0
   -1.7600   12.3670   15.6180 H   0  0  0  0  0  0  0  0  0  0  0  0
    6.7910   22.9030   16.2340 H   0  0  0  0  0  0  0  0  0  0  0  0
    4.7490   24.2310   16.8160 H   0  0  0  0  0  0  0  0  0  0  0  0
    2.5000   23.3580   16.2640 H   0  0  0  0  0  0  0  0  0  0  0  0
    2.7290   17.9380   18.6820 H   0  0  0  0  0  0  0  0  0  0  0  0
   -0.1760   14.6150   19.6550 H   0  0  0  0  0  0  0  0  0  0  0  0
   -1.2590   16.0360   20.0420 H   0  0  0  0  0  0  0  0  0  0  0  0
    3.6290   18.6990   20.6820 H   0  0  0  0  0  0  0  0  0  0  0  0
    1.9790   19.0370   21.3700 H   0  0  0  0  0  0  0  0  0  0  0  0
    2.4220   21.3000   21.1240 H   0  0  0  0  0  0  0  0  0  0  0  0
    3.9350   20.9620   20.1960 H   0  0  0  0  0  0  0  0  0  0  0  0
    1.2030   21.6950   19.1740 H   0  0  0  0  0  0  0  0  0  0  0  0
    2.8060   21.6670   18.2830 H   0  0  0  0  0  0  0  0  0  0  0  0
   -2.7700   17.6870   15.7400 H   0  0  0  0  0  0  0  0  0  0  0  0
   -1.5950   17.7460   17.9500 H   0  0  0  0  0  0  0  0  0  0  0  0
   -0.8360   13.4720   17.5790 H   0  0  0  0  0  0  0  0  0  0  0  0
   -2.9990   15.6570   14.5790 H   0  0  0  0  0  0  0  0  0  0  0  0
  1  2  1  0  0  0  0
  1 28  1  0  0  0  0
  1 29  1  0  0  0  0
  1 30  1  0  0  0  0
  2  4  1  0  0  0  0
  2 16  1  0  0  0  0
  2 31  1  1  0  0  0
  3 18  2  0  0  0  0
  4  7  1  0  0  0  0
  4 32  1  0  0  0  0
  4 33  1  0  0  0  0
  5 16  1  0  0  0  0
  5 17  1  0  0  0  0
  5 27  1  0  0  0  0
  6 16  2  0  0  0  0
  7  9  2  0  0  0  0
  7 15  1  0  0  0  0
  8 18  1  0  0  0  0
  8 19  1  0  0  0  0
  8 34  1  0  0  0  0
  9 11  1  0  0  0  0
  9 35  1  0  0  0  0
 10 22  2  0  0  0  0
 10 23  1  0  0  0  0
 10 54  1  0  0  0  0
 11 13  2  0  0  0  0
 11 36  1  0  0  0  0
 12 23  1  0  0  0  0
 12 37  1  0  0  0  0
 12 38  1  0  0  0  0
 13 14  1  0  0  0  0
 13 39  1  0  0  0  0
 14 15  2  0  0  0  0
 14 40  1  0  0  0  0
 15 41  1  0  0  0  0
 17 18  1  0  0  0  0
 17 25  1  0  0  0  0
 17 42  1  6  0  0  0
 19 20  1  0  0  0  0
 19 43  1  0  0  0  0
 19 44  1  0  0  0  0
 20 21  2  0  0  0  0
 20 24  1  0  0  0  0
 21 22  1  0  0  0  0
 21 52  1  0  0  0  0
 22 51  1  0  0  0  0
 23 24  2  0  0  0  0
 24 53  1  0  0  0  0
 25 26  1  0  0  0  0
 25 45  1  0  0  0  0
 25 46  1  0  0  0  0
 26 27  1  0  0  0  0
 26 47  1  0  0  0  0
 26 48  1  0  0  0  0
 27 49  1  0  0  0  0
 27 50  1  0  0  0  0
M  CHG  2   1   1  10   1
M  END
>  <number_of_rotatable_bonds>
8

>  <lm5_entropy_jk>
21.57145520137845

>  <protonation_change>
deprotonated_in_solution

>  <protonation_site>
54

>  <protonation_pKa>
6.7

>  <protonation_pKa_method>
experiment

>  <experiment_pH>
7.8

>  <protonated_energy_kcalmol>
122.181981

>  <deprotonated_energy_kcalmol>
28.953583

>  <deltaG_kcalmol>
-6.04

>  <charge>
2

$$$$
