4IVB
 OpenBabel11252210453D

 42 45  0  0  1  0  0  0  0  0999 V2000
  -10.3000   28.8810    1.8180 C   0  0  0  0  0  0  0  0  0  0  0  0
  -11.3870   29.3570    0.8390 C   0  0  1  0  0  0  0  0  0  0  0  0
  -10.7250   29.6960   -0.3750 O   0  0  0  0  0  0  0  0  0  0  0  0
  -12.5130   28.3450    0.6090 C   0  0  0  0  0  0  0  0  0  0  0  0
  -13.7330   28.6450   -0.0550 N   0  0  0  0  0  0  0  0  0  0  0  0
  -14.4310   27.4500    0.0470 C   0  0  0  0  0  0  0  0  0  0  0  0
  -13.6360   26.5650    0.7060 C   0  0  0  0  0  0  0  0  0  0  0  0
  -12.4550   27.0860    1.0790 N   0  0  0  0  0  0  0  0  0  0  0  0
  -14.0610   25.2490    0.9290 C   0  0  0  0  0  0  0  0  0  0  0  0
  -15.2600   24.8030    0.4780 N   0  0  0  0  0  0  0  0  0  0  0  0
  -16.0460   25.6830   -0.1780 C   0  0  0  0  0  0  0  0  0  0  0  0
  -15.6960   27.0050   -0.4070 C   0  0  0  0  0  0  0  0  0  0  0  0
  -16.7850   27.6200   -1.1360 C   0  0  0  0  0  0  0  0  0  0  0  0
  -17.7430   26.6330   -1.3450 C   0  0  0  0  0  0  0  0  0  0  0  0
  -17.2780   25.4470   -0.7410 N   0  0  0  0  0  0  0  0  0  0  0  0
  -14.0890   29.9550   -0.6380 C   0  0  1  0  0  0  0  0  0  0  0  0
  -14.2860   29.9430   -2.1720 C   0  0  0  0  0  0  0  0  0  0  0  0
  -14.6230   31.3620   -2.7430 C   0  0  0  0  0  0  0  0  0  0  0  0
  -15.8090   32.0320   -1.9860 C   0  0  1  0  0  0  0  0  0  0  0  0
  -15.5200   32.0700   -0.4590 C   0  0  0  0  0  0  0  0  0  0  0  0
  -15.2480   30.6400    0.1030 C   0  0  0  0  0  0  0  0  0  0  0  0
  -16.0890   33.3880   -2.4920 C   0  0  0  0  0  0  0  0  0  0  0  0
  -16.3000   34.4610   -2.8600 N   0  0  0  0  0  0  0  0  0  0  0  0
  -11.8660   30.2520    1.2640 H   0  0  0  0  0  0  0  0  0  0  0  0
  -13.4310   24.5480    1.4740 H   0  0  0  0  0  0  0  0  0  0  0  0
  -16.8890   28.6360   -1.4930 H   0  0  0  0  0  0  0  0  0  0  0  0
  -18.6920   26.6830   -1.8710 H   0  0  0  0  0  0  0  0  0  0  0  0
  -13.2250   30.6150   -0.4820 H   0  0  0  0  0  0  0  0  0  0  0  0
  -13.3690   29.5560   -2.6370 H   0  0  0  0  0  0  0  0  0  0  0  0
  -15.0640   29.2210   -2.4410 H   0  0  0  0  0  0  0  0  0  0  0  0
  -14.8640   31.2910   -3.8150 H   0  0  0  0  0  0  0  0  0  0  0  0
  -13.7380   32.0130   -2.6840 H   0  0  0  0  0  0  0  0  0  0  0  0
  -16.7230   31.4430   -2.1610 H   0  0  0  0  0  0  0  0  0  0  0  0
  -14.6550   32.7260   -0.2750 H   0  0  0  0  0  0  0  0  0  0  0  0
  -16.3650   32.5440    0.0650 H   0  0  0  0  0  0  0  0  0  0  0  0
  -16.1400   30.0080    0.0320 H   0  0  0  0  0  0  0  0  0  0  0  0
  -15.0060   30.6780    1.1750 H   0  0  0  0  0  0  0  0  0  0  0  0
  -17.7600   24.5510   -0.7020 H   0  0  0  0  0  0  0  0  0  0  0  0
   -9.7650   29.4700   -0.2730 H   0  0  0  0  0  0  0  0  0  0  0  0
   -9.5680   29.6720    2.0270 H   0  0  0  0  0  0  0  0  0  0  0  0
  -10.7580   28.6060    2.7780 H   0  0  0  0  0  0  0  0  0  0  0  0
   -9.7860   27.9900    1.4430 H   0  0  0  0  0  0  0  0  0  0  0  0
  1  2  1  0  0  0  0
  2  4  1  0  0  0  0
  2  3  1  0  0  0  0
  2 24  1  1  0  0  0
  4  5  1  0  0  0  0
  4  8  2  0  0  0  0
  6  7  1  0  0  0  0
  6  5  1  0  0  0  0
  7  8  1  0  0  0  0
  9  7  2  0  0  0  0
  9 10  1  0  0  0  0
 11 12  1  0  0  0  0
 11 10  2  0  0  0  0
 11 15  1  0  0  0  0
 12 13  1  0  0  0  0
 12  6  2  0  0  0  0
 13 14  2  0  0  0  0
 14 15  1  0  0  0  0
 16 17  1  0  0  0  0
 16 21  1  0  0  0  0
 16  5  1  0  0  0  0
 16 28  1  1  0  0  0
 17 18  1  0  0  0  0
 18 19  1  0  0  0  0
 19 20  1  0  0  0  0
 19 22  1  0  0  0  0
 19 33  1  6  0  0  0
 20 21  1  0  0  0  0
 22 23  3  0  0  0  0
 25  9  1  0  0  0  0
 26 13  1  0  0  0  0
 27 14  1  0  0  0  0
 29 17  1  0  0  0  0
 30 17  1  0  0  0  0
 31 18  1  0  0  0  0
 32 18  1  0  0  0  0
 34 20  1  0  0  0  0
 35 20  1  0  0  0  0
 36 21  1  0  0  0  0
 37 21  1  0  0  0  0
 38 15  1  0  0  0  0
 39  3  1  0  0  0  0
 40  1  1  0  0  0  0
 41  1  1  0  0  0  0
 42  1  1  0  0  0  0
M  END
>  <charge>
0

>  <pKi>
8.72

>  <number_of_rotatable_bonds>
2

>  <lm5_entropy_jk>
24.701218558635038

$$$$
