6QBH
 OpenBabel11252210453D

 81 82  0  0  1  0  0  0  0  0999 V2000
    8.4680   18.3660    8.8280 N   0  0  0  0  0  0  0  0  0  0  0  0
   11.3970   17.7530    7.4720 C   0  0  1  0  0  0  0  0  0  0  0  0
   12.3760   18.5020    6.7230 O   0  0  0  0  0  0  0  0  0  0  0  0
   10.0340   18.2210    6.9180 C   0  0  0  0  0  0  0  0  0  0  0  0
    4.9370   17.3680    9.3270 N   0  0  0  0  0  0  0  0  0  0  0  0
   11.3880   14.6490    3.9860 O   0  0  0  0  0  0  0  0  0  0  0  0
    8.8710   17.6330    7.6950 C   0  0  0  0  0  0  0  0  0  0  0  0
   11.7040   15.8840    5.8500 N   0  0  0  0  0  0  0  0  0  0  0  0
    5.8560   19.0400    8.0600 O   0  0  0  0  0  0  0  0  0  0  0  0
    7.3280   17.9240    9.6580 C   0  0  1  0  0  0  0  0  0  0  0  0
    8.3470   16.5660    7.4200 O   0  0  0  0  0  0  0  0  0  0  0  0
    7.3670   18.6190   11.0510 C   0  0  0  0  0  0  0  0  0  0  0  0
   10.3010   13.9800    5.8910 O   0  0  0  0  0  0  0  0  0  0  0  0
    6.6610   17.7600   12.1080 C   0  0  0  0  0  0  0  0  0  0  0  0
    6.8170   20.0450   11.0150 C   0  0  0  0  0  0  0  0  0  0  0  0
    5.9970   18.1690    8.9050 C   0  0  0  0  0  0  0  0  0  0  0  0
    3.6300   17.3070    8.6230 C   0  0  0  0  0  0  0  0  0  0  0  0
    3.3700   15.9190    8.0060 C   0  0  0  0  0  0  0  0  0  0  0  0
    4.1300   15.6700    6.6940 C   0  0  0  0  0  0  0  0  0  0  0  0
    3.3820   16.2020    5.4610 C   0  0  0  0  0  0  0  0  0  0  0  0
    4.2690   16.3180    4.2090 C   0  0  0  0  0  0  0  0  0  0  0  0
    5.1890   17.5540    4.2070 C   0  0  0  0  0  0  0  0  0  0  0  0
    6.6700   17.2490    4.4800 C   0  0  0  0  0  0  0  0  0  0  0  0
    7.3950   16.6350    3.2690 C   0  0  0  0  0  0  0  0  0  0  0  0
    8.8690   16.3560    3.6080 C   0  0  0  0  0  0  0  0  0  0  0  0
    9.5920   15.5120    2.5440 C   0  0  0  0  0  0  0  0  0  0  0  0
   10.2980   14.2690    3.0890 C   0  0  0  0  0  0  0  0  0  0  0  0
   11.6920   16.2210    7.2870 C   0  0  1  0  0  0  0  0  0  0  0  0
   11.0450   14.7680    5.3410 C   0  0  0  0  0  0  0  0  0  0  0  0
   13.0270   15.8640    7.9960 C   0  0  0  0  0  0  0  0  0  0  0  0
   13.4090   14.4160    7.8400 C   0  0  0  0  0  0  0  0  0  0  0  0
   12.7020   13.4150    8.5250 C   0  0  0  0  0  0  0  0  0  0  0  0
   13.0130   12.0670    8.3340 C   0  0  0  0  0  0  0  0  0  0  0  0
   14.0570   11.7000    7.4790 C   0  0  0  0  0  0  0  0  0  0  0  0
   14.7990   12.6930    6.8320 C   0  0  0  0  0  0  0  0  0  0  0  0
   14.4790   14.0420    7.0120 C   0  0  0  0  0  0  0  0  0  0  0  0
   15.0810   14.8010    6.5140 H   0  0  0  0  0  0  0  0  0  0  0  0
    8.7700   19.3470    8.9540 H   0  0  0  0  0  0  0  0  0  0  0  0
   11.4830   18.0140    8.5540 H   0  0  0  0  0  0  0  0  0  0  0  0
   12.9480   19.0320    7.3930 H   0  0  0  0  0  0  0  0  0  0  0  0
    9.9390   17.9180    5.8440 H   0  0  0  0  0  0  0  0  0  0  0  0
    5.1330   16.5420    9.9230 H   0  0  0  0  0  0  0  0  0  0  0  0
   12.4580   16.3240    5.2990 H   0  0  0  0  0  0  0  0  0  0  0  0
    7.4480   16.8260    9.8510 H   0  0  0  0  0  0  0  0  0  0  0  0
    8.4430   18.6600   11.3500 H   0  0  0  0  0  0  0  0  0  0  0  0
    7.0940   16.7350   12.1260 H   0  0  0  0  0  0  0  0  0  0  0  0
    7.3630   20.6390   10.2510 H   0  0  0  0  0  0  0  0  0  0  0  0
    3.5900   18.0990    7.8320 H   0  0  0  0  0  0  0  0  0  0  0  0
    2.2700   15.8250    7.8300 H   0  0  0  0  0  0  0  0  0  0  0  0
    4.2740   14.5720    6.5810 H   0  0  0  0  0  0  0  0  0  0  0  0
    2.9480   17.2040    5.6900 H   0  0  0  0  0  0  0  0  0  0  0  0
    3.5930   16.3870    3.3230 H   0  0  0  0  0  0  0  0  0  0  0  0
    4.8350   18.2730    4.9810 H   0  0  0  0  0  0  0  0  0  0  0  0
    6.7480   16.5550    5.3480 H   0  0  0  0  0  0  0  0  0  0  0  0
    7.3390   17.3360    2.4050 H   0  0  0  0  0  0  0  0  0  0  0  0
    8.9080   15.8490    4.5980 H   0  0  0  0  0  0  0  0  0  0  0  0
   10.3460   16.1650    2.0410 H   0  0  0  0  0  0  0  0  0  0  0  0
   10.8540   13.7380    2.2810 H   0  0  0  0  0  0  0  0  0  0  0  0
   10.8630   15.6600    7.7930 H   0  0  0  0  0  0  0  0  0  0  0  0
   12.9090   16.1120    9.0830 H   0  0  0  0  0  0  0  0  0  0  0  0
   11.9260   13.6950    9.2340 H   0  0  0  0  0  0  0  0  0  0  0  0
   12.4460   11.3010    8.8670 H   0  0  0  0  0  0  0  0  0  0  0  0
   14.3070   10.6480    7.3310 H   0  0  0  0  0  0  0  0  0  0  0  0
   15.6380   12.4160    6.1870 H   0  0  0  0  0  0  0  0  0  0  0  0
   13.8350   16.5220    7.5980 H   0  0  0  0  0  0  0  0  0  0  0  0
   10.0110   19.3370    6.9590 H   0  0  0  0  0  0  0  0  0  0  0  0
    5.5680   17.6830   11.9120 H   0  0  0  0  0  0  0  0  0  0  0  0
    6.9450   20.5280   12.0090 H   0  0  0  0  0  0  0  0  0  0  0  0
    2.8390   17.5180    9.3960 H   0  0  0  0  0  0  0  0  0  0  0  0
    3.6580   15.1330    8.7460 H   0  0  0  0  0  0  0  0  0  0  0  0
    5.1350   16.1510    6.7550 H   0  0  0  0  0  0  0  0  0  0  0  0
    2.5350   15.5110    5.2320 H   0  0  0  0  0  0  0  0  0  0  0  0
    4.8800   15.3970    4.0950 H   0  0  0  0  0  0  0  0  0  0  0  0
    5.1090   18.0520    3.2150 H   0  0  0  0  0  0  0  0  0  0  0  0
    7.1750   18.2050    4.7490 H   0  0  0  0  0  0  0  0  0  0  0  0
    6.8870   15.6900    2.9740 H   0  0  0  0  0  0  0  0  0  0  0  0
    9.4090   17.3280    3.7000 H   0  0  0  0  0  0  0  0  0  0  0  0
    8.8680   15.1760    1.7630 H   0  0  0  0  0  0  0  0  0  0  0  0
    9.6030   13.5870    3.6210 H   0  0  0  0  0  0  0  0  0  0  0  0
    5.7320   20.0490   10.7720 H   0  0  0  0  0  0  0  0  0  0  0  0
    6.7940   18.2180   13.1150 H   0  0  0  0  0  0  0  0  0  0  0  0
  1 38  1  0  0  0  0
  1 10  1  0  0  0  0
  2 39  1  1  0  0  0
  2 28  1  0  0  0  0
  3 40  1  0  0  0  0
  3  2  1  0  0  0  0
  4  2  1  0  0  0  0
  4  7  1  0  0  0  0
  5 42  1  0  0  0  0
  6 29  1  0  0  0  0
  7  1  1  0  0  0  0
  8 28  1  0  0  0  0
  9 16  2  0  0  0  0
 10 44  1  1  0  0  0
 10 12  1  0  0  0  0
 11  7  2  0  0  0  0
 12 45  1  0  0  0  0
 12 14  1  0  0  0  0
 14 46  1  0  0  0  0
 14 81  1  0  0  0  0
 15 12  1  0  0  0  0
 15 68  1  0  0  0  0
 16  5  1  0  0  0  0
 16 10  1  0  0  0  0
 17  5  1  0  0  0  0
 17 69  1  0  0  0  0
 18 70  1  0  0  0  0
 18 17  1  0  0  0  0
 19 71  1  0  0  0  0
 19 18  1  0  0  0  0
 20 51  1  0  0  0  0
 20 19  1  0  0  0  0
 21 22  1  0  0  0  0
 21 20  1  0  0  0  0
 22 53  1  0  0  0  0
 23 75  1  0  0  0  0
 23 22  1  0  0  0  0
 23 54  1  0  0  0  0
 24 23  1  0  0  0  0
 25 24  1  0  0  0  0
 25 56  1  0  0  0  0
 26 25  1  0  0  0  0
 26 27  1  0  0  0  0
 27 79  1  0  0  0  0
 27  6  1  0  0  0  0
 28 59  1  1  0  0  0
 28 30  1  0  0  0  0
 29 13  2  0  0  0  0
 29  8  1  0  0  0  0
 30 60  1  0  0  0  0
 31 30  1  0  0  0  0
 31 32  2  0  0  0  0
 32 33  1  0  0  0  0
 32 61  1  0  0  0  0
 33 62  1  0  0  0  0
 34 63  1  0  0  0  0
 34 33  2  0  0  0  0
 35 34  1  0  0  0  0
 36 35  2  0  0  0  0
 36 31  1  0  0  0  0
 37 36  1  0  0  0  0
 41  4  1  0  0  0  0
 43  8  1  0  0  0  0
 47 15  1  0  0  0  0
 48 17  1  0  0  0  0
 49 18  1  0  0  0  0
 50 19  1  0  0  0  0
 52 21  1  0  0  0  0
 55 24  1  0  0  0  0
 57 26  1  0  0  0  0
 58 27  1  0  0  0  0
 64 35  1  0  0  0  0
 65 30  1  0  0  0  0
 66  4  1  0  0  0  0
 67 14  1  0  0  0  0
 72 20  1  0  0  0  0
 73 21  1  0  0  0  0
 74 22  1  0  0  0  0
 76 24  1  0  0  0  0
 77 25  1  0  0  0  0
 78 26  1  0  0  0  0
 80 15  1  0  0  0  0
M  END
>  <IC50_NM>
2.5

>  <number_of_rotatable_bonds>
3

>  <charge>
0

>  <lm5_entropy_jk>
31.13362949117809

$$$$
