5NY3
 OpenBabel11252210453D

 38 39  0  0  0  0  0  0  0  0999 V2000
   -3.4630    6.7760   11.8550 C   0  0  0  0  0  0  0  0  0  0  0  0
   -4.6650    3.8430   14.8020 C   0  0  0  0  0  0  0  0  0  0  0  0
   -5.1630    1.1090   15.6230 N   0  5  0  0  0  0  0  0  0  0  0  0
   -4.1680    2.9640   17.2010 O   0  0  0  0  0  0  0  0  0  0  0  0
   -3.7100    3.5280   13.8360 C   0  0  0  0  0  0  0  0  0  0  0  0
   -6.5410    3.0000   16.3170 O   0  0  0  0  0  0  0  0  0  0  0  0
   -3.3390    4.4650   12.8640 C   0  0  0  0  0  0  0  0  0  0  0  0
   -3.9130    5.7430   12.8550 C   0  0  0  0  0  0  0  0  0  0  0  0
   -4.9010    6.0480   13.8030 C   0  0  0  0  0  0  0  0  0  0  0  0
   -5.2680    5.1030   14.7690 C   0  0  0  0  0  0  0  0  0  0  0  0
   -1.9370    7.0010   11.9260 C   0  0  0  0  0  0  0  0  0  0  0  0
   -1.5420    8.3840   11.5300 N   0  0  0  0  0  0  0  0  0  0  0  0
   -1.3990    9.3760   12.5200 C   0  0  0  0  0  0  0  0  0  0  0  0
   -1.4160   10.7190   12.0190 N   0  0  0  0  0  0  0  0  0  0  0  0
   -1.1840    9.1360   13.6970 O   0  0  0  0  0  0  0  0  0  0  0  0
   -1.2610   14.2810   13.0550 C   0  0  0  0  0  0  0  0  0  0  0  0
   -1.5530   13.1240   12.3310 C   0  0  0  0  0  0  0  0  0  0  0  0
   -1.0680   11.8750   12.7740 C   0  0  0  0  0  0  0  0  0  0  0  0
   -0.4850   14.1780   14.2100 C   0  0  0  0  0  0  0  0  0  0  0  0
   -0.2440   11.8020   13.9190 C   0  0  0  0  0  0  0  0  0  0  0  0
    0.0470   12.9570   14.6390 C   0  0  0  0  0  0  0  0  0  0  0  0
   -0.2160   15.5900   15.1680 Cl  0  0  0  0  0  0  0  0  0  0  0  0
   -5.1090    2.7050   16.0990 S   0  0  0  0  0  0  0  0  0  0  0  0
   -1.8780    8.6580   10.5940 H   0  0  0  0  0  0  0  0  0  0  0  0
   -3.7280    6.4400   10.8190 H   0  0  0  0  0  0  0  0  0  0  0  0
   -3.9960    7.7460   12.0230 H   0  0  0  0  0  0  0  0  0  0  0  0
   -5.3740    7.0310   13.7920 H   0  0  0  0  0  0  0  0  0  0  0  0
   -6.0350    5.3990   15.4960 H   0  0  0  0  0  0  0  0  0  0  0  0
   -1.7350   10.8940   11.0510 H   0  0  0  0  0  0  0  0  0  0  0  0
   -1.6420   15.2480   12.7120 H   0  0  0  0  0  0  0  0  0  0  0  0
   -2.1620   13.2010   11.4240 H   0  0  0  0  0  0  0  0  0  0  0  0
   -4.2420    0.6550   15.9570 H   0  0  0  0  0  0  0  0  0  0  0  0
    0.1720   10.8430   14.2450 H   0  0  0  0  0  0  0  0  0  0  0  0
    0.6820   12.9120   15.5300 H   0  0  0  0  0  0  0  0  0  0  0  0
   -3.2190    2.5520   13.8000 H   0  0  0  0  0  0  0  0  0  0  0  0
   -2.5820    4.2060   12.1210 H   0  0  0  0  0  0  0  0  0  0  0  0
   -1.5560    6.7900   12.9600 H   0  0  0  0  0  0  0  0  0  0  0  0
   -1.4180    6.3170   11.1960 H   0  0  0  0  0  0  0  0  0  0  0  0
  1  8  1  0  0  0  0
  1 11  1  0  0  0  0
  2  5  2  0  0  0  0
  2 10  1  0  0  0  0
  2 23  1  0  0  0  0
  3 23  1  0  0  0  0
  4 23  2  0  0  0  0
  5  7  1  0  0  0  0
  6 23  2  0  0  0  0
  7  8  2  0  0  0  0
  8  9  1  0  0  0  0
  9 10  2  0  0  0  0
 11 12  1  0  0  0  0
 12 13  1  0  0  0  0
 13 14  1  0  0  0  0
 13 15  2  0  0  0  0
 14 18  1  0  0  0  0
 16 17  2  0  0  0  0
 16 19  1  0  0  0  0
 17 18  1  0  0  0  0
 18 20  2  0  0  0  0
 19 21  2  0  0  0  0
 20 21  1  0  0  0  0
 22 19  1  0  0  0  0
 24 12  1  0  0  0  0
 25  1  1  0  0  0  0
 26  1  1  0  0  0  0
 27  9  1  0  0  0  0
 28 10  1  0  0  0  0
 29 14  1  0  0  0  0
 30 16  1  0  0  0  0
 31 17  1  0  0  0  0
 32  3  1  0  0  0  0
 33 20  1  0  0  0  0
 34 21  1  0  0  0  0
 35  5  1  0  0  0  0
 36  7  1  0  0  0  0
 37 11  1  0  0  0  0
 38 11  1  0  0  0  0
M  CHG  1   3  -1
M  END
>  <deltaG_kcalmol>
-10.2

>  <number_of_rotatable_bonds>
7

>  <charge>
-1

>  <lm5_entropy_jk>
27.943820470677032

$$$$
