13a.pdb
 OpenBabel11252210453D

 87 90  0  0  1  0  0  0  0  0999 V2000
    7.2210   -8.1860   18.4230 C   0  0  0  0  0  0  0  0  0  0  0  0
    7.1610   -6.1950   16.9920 N   0  0  0  0  0  0  0  0  0  0  0  0
    7.8610   -5.9810   19.1640 O   0  0  0  0  0  0  0  0  0  0  0  0
    6.1730   -4.2560   14.6850 O   0  0  0  0  0  0  0  0  0  0  0  0
    7.4610   -6.7120   18.2680 C   0  0  0  0  0  0  0  0  0  0  0  0
    5.5470   -3.3960   16.6910 N   0  0  0  0  0  0  0  0  0  0  0  0
    6.9160    0.8020   12.5890 C   0  0  0  0  0  0  0  0  0  0  0  0
    4.1810    0.3200   13.7740 N   0  0  0  0  0  0  0  0  0  0  0  0
    5.1220    0.7600   16.4950 O   0  0  0  0  0  0  0  0  0  0  0  0
    6.3250    1.8290   11.8360 C   0  0  0  0  0  0  0  0  0  0  0  0
    3.9250   -1.3480   12.2480 O   0  0  0  0  0  0  0  0  0  0  0  0
    6.5310    1.8900   10.4560 C   0  0  0  0  0  0  0  0  0  0  0  0
    7.3380    0.9400    9.8230 C   0  0  0  0  0  0  0  0  0  0  0  0
    7.9530   -0.0640   10.5760 C   0  0  0  0  0  0  0  0  0  0  0  0
    7.7450   -0.1370   11.9550 C   0  0  0  0  0  0  0  0  0  0  0  0
    7.5740   -4.8270   16.6160 C   0  0  2  0  0  0  0  0  0  0  0  0
    6.3740   -4.1810   15.8880 C   0  0  0  0  0  0  0  0  0  0  0  0
    4.2400   -2.9030   16.1790 C   0  0  1  0  0  0  0  0  0  0  0  0
    8.8290   -4.8150   15.6970 C   0  0  0  0  0  0  0  0  0  0  0  0
    9.1790   -3.3730   15.3110 C   0  0  0  0  0  0  0  0  0  0  0  0
   10.0160   -5.4930   16.3910 C   0  0  0  0  0  0  0  0  0  0  0  0
    2.3140   -7.0400   15.7750 C   0  0  0  0  0  0  0  0  0  0  0  0
    2.9140   -7.8210   16.7680 C   0  0  0  0  0  0  0  0  0  0  0  0
    3.5760   -7.2000   17.8310 C   0  0  0  0  0  0  0  0  0  0  0  0
    3.6340   -5.8070   17.9030 C   0  0  0  0  0  0  0  0  0  0  0  0
    3.0310   -5.0220   16.9060 C   0  0  0  0  0  0  0  0  0  0  0  0
    2.3740   -5.6460   15.8350 C   0  0  0  0  0  0  0  0  0  0  0  0
    3.0790   -3.5250   17.0030 C   0  0  0  0  0  0  0  0  0  0  0  0
    4.1480   -1.3730   16.3270 C   0  0  0  0  0  0  0  0  0  0  0  0
    5.3250   -0.5260   15.8480 C   0  0  1  0  0  0  0  0  0  0  0  0
    5.4330   -0.2620   14.3220 C   0  0  2  0  0  0  0  0  0  0  0  0
    3.5710   -0.2590   12.6800 C   0  0  0  0  0  0  0  0  0  0  0  0
    2.3640    0.4470   12.0350 C   0  0  1  0  0  0  0  0  0  0  0  0
    1.9160    1.5860   12.8340 O   0  0  0  0  0  0  0  0  0  0  0  0
    6.6330    0.6850   14.0590 C   0  0  0  0  0  0  0  0  0  0  0  0
    1.6060    2.6740   11.9960 C   0  0  0  0  0  0  0  0  0  0  0  0
    1.0810    3.6610   12.4340 O   0  0  0  0  0  0  0  0  0  0  0  0
    2.1080    2.4040   10.7100 N   0  0  0  0  0  0  0  0  0  0  0  0
    2.6820    1.0270   10.6370 C   0  0  0  0  0  0  0  0  0  0  0  0
    1.6990    3.1140    9.5270 C   0  0  0  0  0  0  0  0  0  0  0  0
    2.6410    3.3410    8.5110 C   0  0  0  0  0  0  0  0  0  0  0  0
    2.2700    4.0850    7.3890 C   0  0  0  0  0  0  0  0  0  0  0  0
    0.9820    4.6190    7.2900 C   0  0  0  0  0  0  0  0  0  0  0  0
    0.0520    4.3980    8.3120 C   0  0  0  0  0  0  0  0  0  0  0  0
    0.3930    3.6260    9.4240 C   0  0  0  0  0  0  0  0  0  0  0  0
    6.4640   -8.5820   17.7010 H   0  0  0  0  0  0  0  0  0  0  0  0
    7.0180   -6.8590   16.2080 H   0  0  0  0  0  0  0  0  0  0  0  0
    8.1740   -8.7450   18.2480 H   0  0  0  0  0  0  0  0  0  0  0  0
    5.6390   -3.3980   17.7210 H   0  0  0  0  0  0  0  0  0  0  0  0
    3.9210    1.2440   14.1160 H   0  0  0  0  0  0  0  0  0  0  0  0
    6.0170    0.9620   16.9660 H   0  0  0  0  0  0  0  0  0  0  0  0
    5.7070    2.5830   12.3260 H   0  0  0  0  0  0  0  0  0  0  0  0
    6.0560    2.6770    9.8620 H   0  0  0  0  0  0  0  0  0  0  0  0
    7.4700    0.9850    8.7410 H   0  0  0  0  0  0  0  0  0  0  0  0
    8.5880   -0.7980   10.0850 H   0  0  0  0  0  0  0  0  0  0  0  0
    8.2300   -0.9210   12.5380 H   0  0  0  0  0  0  0  0  0  0  0  0
    7.8100   -4.2520   17.5520 H   0  0  0  0  0  0  0  0  0  0  0  0
    4.1390   -3.1990   15.1020 H   0  0  0  0  0  0  0  0  0  0  0  0
    8.5860   -5.3930   14.7710 H   0  0  0  0  0  0  0  0  0  0  0  0
   10.1480   -3.3590   14.7650 H   0  0  0  0  0  0  0  0  0  0  0  0
    8.3930   -2.9410   14.6530 H   0  0  0  0  0  0  0  0  0  0  0  0
    9.2800   -2.7360   16.2170 H   0  0  0  0  0  0  0  0  0  0  0  0
   10.8530   -5.5680   15.6680 H   0  0  0  0  0  0  0  0  0  0  0  0
   10.3500   -4.9020   17.2720 H   0  0  0  0  0  0  0  0  0  0  0  0
    9.7530   -6.5210   16.7220 H   0  0  0  0  0  0  0  0  0  0  0  0
    1.8030   -7.5200   14.9450 H   0  0  0  0  0  0  0  0  0  0  0  0
    2.8710   -8.9110   16.7180 H   0  0  0  0  0  0  0  0  0  0  0  0
    4.0490   -7.8050   18.6080 H   0  0  0  0  0  0  0  0  0  0  0  0
    4.1520   -5.3250   18.7340 H   0  0  0  0  0  0  0  0  0  0  0  0
    1.8980   -5.0460   15.0600 H   0  0  0  0  0  0  0  0  0  0  0  0
    2.1170   -3.0840   16.6500 H   0  0  0  0  0  0  0  0  0  0  0  0
    3.1970   -3.2270   18.0770 H   0  0  0  0  0  0  0  0  0  0  0  0
    4.0780   -1.1640   17.4280 H   0  0  0  0  0  0  0  0  0  0  0  0
    3.2050   -1.0360   15.8360 H   0  0  0  0  0  0  0  0  0  0  0  0
    6.2940   -0.9550   16.2110 H   0  0  0  0  0  0  0  0  0  0  0  0
    5.6370   -1.2500   13.8190 H   0  0  0  0  0  0  0  0  0  0  0  0
    1.4930   -0.2550   12.0220 H   0  0  0  0  0  0  0  0  0  0  0  0
    6.4260    1.6910   14.5040 H   0  0  0  0  0  0  0  0  0  0  0  0
    7.5290    0.2840   14.6020 H   0  0  0  0  0  0  0  0  0  0  0  0
    2.2180    0.4290    9.8140 H   0  0  0  0  0  0  0  0  0  0  0  0
    3.7890    1.1070   10.4510 H   0  0  0  0  0  0  0  0  0  0  0  0
    3.6640    2.9650    8.5950 H   0  0  0  0  0  0  0  0  0  0  0  0
    3.0000    4.2650    6.5930 H   0  0  0  0  0  0  0  0  0  0  0  0
    0.7060    5.2130    6.4140 H   0  0  0  0  0  0  0  0  0  0  0  0
   -0.9510    4.8260    8.2360 H   0  0  0  0  0  0  0  0  0  0  0  0
   -0.3560    3.4230   10.1900 H   0  0  0  0  0  0  0  0  0  0  0  0
    6.8650   -8.4200   19.4560 H   0  0  0  0  0  0  0  0  0  0  0  0
  1  5  1  0  0  0  0
  1 46  1  0  0  0  0
  1 48  1  0  0  0  0
  1 87  1  0  0  0  0
  2  5  1  0  0  0  0
  2 16  1  0  0  0  0
  2 47  1  0  0  0  0
  3  5  2  0  0  0  0
  4 17  2  0  0  0  0
  6 17  1  0  0  0  0
  6 18  1  0  0  0  0
  6 49  1  0  0  0  0
  7 10  2  0  0  0  0
  7 15  1  0  0  0  0
  7 35  1  0  0  0  0
  8 31  1  0  0  0  0
  8 32  1  0  0  0  0
  8 50  1  0  0  0  0
  9 30  1  0  0  0  0
  9 51  1  0  0  0  0
 10 12  1  0  0  0  0
 10 52  1  0  0  0  0
 11 32  2  0  0  0  0
 12 13  2  0  0  0  0
 12 53  1  0  0  0  0
 13 14  1  0  0  0  0
 13 54  1  0  0  0  0
 14 15  2  0  0  0  0
 14 55  1  0  0  0  0
 15 56  1  0  0  0  0
 16 17  1  0  0  0  0
 16 19  1  0  0  0  0
 16 57  1  1  0  0  0
 18 28  1  0  0  0  0
 18 29  1  0  0  0  0
 18 58  1  6  0  0  0
 19 20  1  0  0  0  0
 19 21  1  0  0  0  0
 19 59  1  0  0  0  0
 20 60  1  0  0  0  0
 20 61  1  0  0  0  0
 20 62  1  0  0  0  0
 21 63  1  0  0  0  0
 21 64  1  0  0  0  0
 21 65  1  0  0  0  0
 22 23  2  0  0  0  0
 22 27  1  0  0  0  0
 22 66  1  0  0  0  0
 23 24  1  0  0  0  0
 23 67  1  0  0  0  0
 24 25  2  0  0  0  0
 24 68  1  0  0  0  0
 25 26  1  0  0  0  0
 25 69  1  0  0  0  0
 26 27  2  0  0  0  0
 26 28  1  0  0  0  0
 27 70  1  0  0  0  0
 28 71  1  0  0  0  0
 28 72  1  0  0  0  0
 29 30  1  0  0  0  0
 29 73  1  0  0  0  0
 29 74  1  0  0  0  0
 30 31  1  0  0  0  0
 30 75  1  1  0  0  0
 31 35  1  0  0  0  0
 31 76  1  6  0  0  0
 32 33  1  0  0  0  0
 33 34  1  0  0  0  0
 33 39  1  0  0  0  0
 33 77  1  1  0  0  0
 34 36  1  0  0  0  0
 35 78  1  0  0  0  0
 35 79  1  0  0  0  0
 36 37  2  0  0  0  0
 36 38  1  0  0  0  0
 38 39  1  0  0  0  0
 38 40  1  0  0  0  0
 39 80  1  0  0  0  0
 39 81  1  0  0  0  0
 40 41  2  0  0  0  0
 40 45  1  0  0  0  0
 41 42  1  0  0  0  0
 41 82  1  0  0  0  0
 42 43  2  0  0  0  0
 42 83  1  0  0  0  0
 43 44  1  0  0  0  0
 43 84  1  0  0  0  0
 44 45  2  0  0  0  0
 44 85  1  0  0  0  0
 45 86  1  0  0  0  0
M  END
>  <charge>
0

>  <KI_NM>
0.85

>  <number_of_rotatable_bonds>
17

>  <lm5_entropy_jk>
42.441311785015955

>  <ligand_crystal_conformation>
A

$$$$
