2OXY
 OpenBabel11252210453D

 15 16  0  0  1  0  0  0  0  0999 V2000
   21.2950    8.4460   20.3720 C   0  0  0  0  0  0  0  0  0  0  0  0
   21.5260    8.9100   19.0400 C   0  0  0  0  0  0  0  0  0  0  0  0
   22.4420    8.2780   18.2180 C   0  0  0  0  0  0  0  0  0  0  0  0
   21.9390    7.3220   20.8660 C   0  0  0  0  0  0  0  0  0  0  0  0
   23.5190    5.4280   20.2280 N   0  0  0  0  0  0  0  0  0  0  0  0
   22.8120    6.6170   20.0180 C   0  0  0  0  0  0  0  0  0  0  0  0
   23.0850    7.1250   18.7020 C   0  0  0  0  0  0  0  0  0  0  0  0
   23.9960    6.2400   18.1280 N   0  0  0  0  0  0  0  0  0  0  0  0
   24.2050    5.2070   19.0870 C   0  0  0  0  0  0  0  0  0  0  0  0
   20.0870    9.3730   21.5010 Br  0  0  0  0  0  0  0  0  0  0  0  0
   20.5730   10.4110   18.3710 Br  0  0  0  0  0  0  0  0  0  0  0  0
   22.9550    8.8040   16.4780 Br  0  0  0  0  0  0  0  0  0  0  0  0
   21.7570    6.6310   22.6100 Br  0  0  0  0  0  0  0  0  0  0  0  0
   24.8570    4.3600   18.8640 H   0  0  0  0  0  0  0  0  0  0  0  0
   24.4050    6.2980   17.1990 H   0  0  0  0  0  0  0  0  0  0  0  0
  1  2  2  0  0  0  0
  1  4  1  0  0  0  0
  1 10  1  0  0  0  0
  2  3  1  0  0  0  0
  2 11  1  0  0  0  0
  3  7  2  0  0  0  0
  3 12  1  0  0  0  0
  4  6  2  0  0  0  0
  4 13  1  0  0  0  0
  5  6  1  0  0  0  0
  5  9  2  0  0  0  0
  6  7  1  0  0  0  0
  7  8  1  0  0  0  0
  8  9  1  0  0  0  0
  8 15  1  0  0  0  0
  9 14  1  0  0  0  0
M  END
>  <charge>
0

>  <Ki_NM>
300

>  <number_of_rotatable_bonds>
0

>  <lm5_entropy_jk>
7.2278

$$$$
