model13c
 OpenBabel11252210453D

 87 90  0  0  1  0  0  0  0  0999 V2000
    7.2470   -5.9020   16.9350 N   0  0  0  0  0  0  0  0  0  0  0  0
    8.0550   -5.8090   19.0550 O   0  0  0  0  0  0  0  0  0  0  0  0
    7.1960   -7.8500   18.2770 C   0  0  0  0  0  0  0  0  0  0  0  0
    6.6100   -3.4770   14.5850 O   0  0  0  0  0  0  0  0  0  0  0  0
    7.5370   -6.4280   18.1520 C   0  0  0  0  0  0  0  0  0  0  0  0
    5.5800   -3.4560   16.5950 N   0  0  0  0  0  0  0  0  0  0  0  0
    7.1210    0.8850   12.7470 C   0  0  0  0  0  0  0  0  0  0  0  0
    4.4710    0.3030   13.6470 N   0  0  0  0  0  0  0  0  0  0  0  0
    4.7910    0.7570   16.3430 O   0  0  0  0  0  0  0  0  0  0  0  0
    7.1210    2.2440   12.3930 C   0  0  0  0  0  0  0  0  0  0  0  0
    3.3880   -1.5840   13.0100 O   0  0  0  0  0  0  0  0  0  0  0  0
    7.3720    2.6350   11.0680 C   0  0  0  0  0  0  0  0  0  0  0  0
    7.6200    1.6590   10.0910 C   0  0  0  0  0  0  0  0  0  0  0  0
    7.6310    0.2990   10.4420 C   0  0  0  0  0  0  0  0  0  0  0  0
    7.3780   -0.0850   11.7690 C   0  0  0  0  0  0  0  0  0  0  0  0
    7.7660   -4.5890   16.4330 C   0  0  2  0  0  0  0  0  0  0  0  0
    6.6300   -3.7680   15.7710 C   0  0  0  0  0  0  0  0  0  0  0  0
    4.2950   -2.9920   16.1090 C   0  0  1  0  0  0  0  0  0  0  0  0
    8.9950   -4.7660   15.4920 C   0  0  0  0  0  0  0  0  0  0  0  0
    9.8290   -3.4810   15.4400 C   0  0  0  0  0  0  0  0  0  0  0  0
    9.9510   -5.8830   15.9270 C   0  0  0  0  0  0  0  0  0  0  0  0
    2.3170   -7.1370   15.6600 C   0  0  0  0  0  0  0  0  0  0  0  0
    2.8110   -7.9520   16.6910 C   0  0  0  0  0  0  0  0  0  0  0  0
    3.4550   -7.3720   17.7950 C   0  0  0  0  0  0  0  0  0  0  0  0
    3.6090   -5.9770   17.8580 C   0  0  0  0  0  0  0  0  0  0  0  0
    3.1170   -5.1620   16.8280 C   0  0  0  0  0  0  0  0  0  0  0  0
    2.4710   -5.7430   15.7290 C   0  0  0  0  0  0  0  0  0  0  0  0
    3.1950   -3.6580   16.9500 C   0  0  0  0  0  0  0  0  0  0  0  0
    4.1260   -1.4790   16.3000 C   0  0  0  0  0  0  0  0  0  0  0  0
    5.2540   -0.5090   15.9060 C   0  0  1  0  0  0  0  0  0  0  0  0
    5.5670   -0.3600   14.3850 C   0  0  2  0  0  0  0  0  0  0  0  0
    3.4900   -0.3710   12.9650 C   0  0  0  0  0  0  0  0  0  0  0  0
    2.5960    0.4840   12.0480 C   0  0  1  0  0  0  0  0  0  0  0  0
    1.8590    1.5310   12.7450 O   0  0  0  0  0  0  0  0  0  0  0  0
    6.8600    0.4760   14.1820 C   0  0  0  0  0  0  0  0  0  0  0  0
    1.7410    2.6680   11.9980 C   0  0  0  0  0  0  0  0  0  0  0  0
    1.1080    3.6590   12.3080 O   0  0  0  0  0  0  0  0  0  0  0  0
    2.6390    2.5750   10.9590 N   0  0  0  0  0  0  0  0  0  0  0  0
    3.3490    1.2870   10.9650 C   0  0  0  0  0  0  0  0  0  0  0  0
    2.8430    3.5500    9.9540 C   0  0  0  0  0  0  0  0  0  0  0  0
    4.1270    3.7590    9.4360 C   0  0  0  0  0  0  0  0  0  0  0  0
    4.3410    4.7190    8.4400 C   0  0  0  0  0  0  0  0  0  0  0  0
    3.2680    5.4800    7.9470 C   0  0  0  0  0  0  0  0  0  0  0  0
    1.9740    5.2680    8.4430 C   0  0  0  0  0  0  0  0  0  0  0  0
    1.7670    4.2960    9.4430 C   0  0  0  0  0  0  0  0  0  0  0  0
    3.4720    6.4080    6.9870 F   0  0  0  0  0  0  0  0  0  0  0  0
    5.5880    4.9080    7.9570 F   0  0  0  0  0  0  0  0  0  0  0  0
    6.8890   -6.5750   16.2630 H   0  0  0  0  0  0  0  0  0  0  0  0
    6.2170   -8.0300   17.8290 H   0  0  0  0  0  0  0  0  0  0  0  0
    7.9500   -8.4370   17.7490 H   0  0  0  0  0  0  0  0  0  0  0  0
    7.1810   -8.1200   19.3350 H   0  0  0  0  0  0  0  0  0  0  0  0
    5.6430   -3.7760   17.5530 H   0  0  0  0  0  0  0  0  0  0  0  0
    4.4860    1.3100   13.5500 H   0  0  0  0  0  0  0  0  0  0  0  0
    4.9130    1.3100   15.5480 H   0  0  0  0  0  0  0  0  0  0  0  0
    6.9410    3.0030   13.1510 H   0  0  0  0  0  0  0  0  0  0  0  0
    7.3840    3.6930   10.8020 H   0  0  0  0  0  0  0  0  0  0  0  0
    7.8120    1.9580    9.0610 H   0  0  0  0  0  0  0  0  0  0  0  0
    7.8460   -0.4520    9.6860 H   0  0  0  0  0  0  0  0  0  0  0  0
    7.3950   -1.1360   12.0480 H   0  0  0  0  0  0  0  0  0  0  0  0
    8.0860   -3.9890   17.2920 H   0  0  0  0  0  0  0  0  0  0  0  0
    4.1760   -3.2590   15.0420 H   0  0  0  0  0  0  0  0  0  0  0  0
    8.6170   -5.0030   14.4860 H   0  0  0  0  0  0  0  0  0  0  0  0
   10.6450   -3.5630   14.7130 H   0  0  0  0  0  0  0  0  0  0  0  0
    9.2040   -2.6330   15.1330 H   0  0  0  0  0  0  0  0  0  0  0  0
   10.2700   -3.2470   16.4170 H   0  0  0  0  0  0  0  0  0  0  0  0
   10.8020   -5.9450   15.2430 H   0  0  0  0  0  0  0  0  0  0  0  0
   10.3270   -5.7140   16.9440 H   0  0  0  0  0  0  0  0  0  0  0  0
    9.4500   -6.8580   15.9080 H   0  0  0  0  0  0  0  0  0  0  0  0
    1.8190   -7.5840   14.8060 H   0  0  0  0  0  0  0  0  0  0  0  0
    2.6900   -9.0350   16.6400 H   0  0  0  0  0  0  0  0  0  0  0  0
    3.8270   -7.9990   18.6060 H   0  0  0  0  0  0  0  0  0  0  0  0
    4.1000   -5.5240   18.7160 H   0  0  0  0  0  0  0  0  0  0  0  0
    2.0700   -5.1090   14.9450 H   0  0  0  0  0  0  0  0  0  0  0  0
    2.2230   -3.2320   16.6810 H   0  0  0  0  0  0  0  0  0  0  0  0
    3.3350   -3.3970   18.0050 H   0  0  0  0  0  0  0  0  0  0  0  0
    3.9790   -1.3150   17.3690 H   0  0  0  0  0  0  0  0  0  0  0  0
    3.2020   -1.1620   15.8070 H   0  0  0  0  0  0  0  0  0  0  0  0
    6.1810   -0.7910   16.4370 H   0  0  0  0  0  0  0  0  0  0  0  0
    5.7260   -1.3680   13.9730 H   0  0  0  0  0  0  0  0  0  0  0  0
    1.8950   -0.2250   11.5840 H   0  0  0  0  0  0  0  0  0  0  0  0
    6.8470    1.3640   14.8260 H   0  0  0  0  0  0  0  0  0  0  0  0
    7.7170   -0.0990   14.5560 H   0  0  0  0  0  0  0  0  0  0  0  0
    3.2850    0.8010    9.9800 H   0  0  0  0  0  0  0  0  0  0  0  0
    4.4150    1.4190   11.2200 H   0  0  0  0  0  0  0  0  0  0  0  0
    4.9690    3.1830    9.8000 H   0  0  0  0  0  0  0  0  0  0  0  0
    1.1420    5.8520    8.0470 H   0  0  0  0  0  0  0  0  0  0  0  0
    0.7610    4.1160    9.8160 H   0  0  0  0  0  0  0  0  0  0  0  0
  1  5  1  0  0  0  0
  1 16  1  0  0  0  0
  1 48  1  0  0  0  0
  2  5  2  0  0  0  0
  3  5  1  0  0  0  0
  3 49  1  0  0  0  0
  3 50  1  0  0  0  0
  3 51  1  0  0  0  0
  4 17  2  0  0  0  0
  6 17  1  0  0  0  0
  6 18  1  0  0  0  0
  6 52  1  0  0  0  0
  7 10  2  0  0  0  0
  7 15  1  0  0  0  0
  7 35  1  0  0  0  0
  8 31  1  0  0  0  0
  8 32  1  0  0  0  0
  8 53  1  0  0  0  0
  9 30  1  0  0  0  0
  9 54  1  0  0  0  0
 10 12  1  0  0  0  0
 10 55  1  0  0  0  0
 11 32  2  0  0  0  0
 12 13  2  0  0  0  0
 12 56  1  0  0  0  0
 13 14  1  0  0  0  0
 13 57  1  0  0  0  0
 14 15  2  0  0  0  0
 14 58  1  0  0  0  0
 15 59  1  0  0  0  0
 16 17  1  0  0  0  0
 16 19  1  0  0  0  0
 16 60  1  1  0  0  0
 18 28  1  0  0  0  0
 18 29  1  0  0  0  0
 18 61  1  6  0  0  0
 19 20  1  0  0  0  0
 19 21  1  0  0  0  0
 19 62  1  0  0  0  0
 20 63  1  0  0  0  0
 20 64  1  0  0  0  0
 20 65  1  0  0  0  0
 21 66  1  0  0  0  0
 21 67  1  0  0  0  0
 21 68  1  0  0  0  0
 22 23  2  0  0  0  0
 22 27  1  0  0  0  0
 22 69  1  0  0  0  0
 23 24  1  0  0  0  0
 23 70  1  0  0  0  0
 24 25  2  0  0  0  0
 24 71  1  0  0  0  0
 25 26  1  0  0  0  0
 25 72  1  0  0  0  0
 26 27  2  0  0  0  0
 26 28  1  0  0  0  0
 27 73  1  0  0  0  0
 28 74  1  0  0  0  0
 28 75  1  0  0  0  0
 29 30  1  0  0  0  0
 29 76  1  0  0  0  0
 29 77  1  0  0  0  0
 30 31  1  0  0  0  0
 30 78  1  1  0  0  0
 31 35  1  0  0  0  0
 31 79  1  6  0  0  0
 32 33  1  0  0  0  0
 33 34  1  0  0  0  0
 33 39  1  0  0  0  0
 33 80  1  6  0  0  0
 34 36  1  0  0  0  0
 35 81  1  0  0  0  0
 35 82  1  0  0  0  0
 36 37  2  0  0  0  0
 36 38  1  0  0  0  0
 38 39  1  0  0  0  0
 38 40  1  0  0  0  0
 39 83  1  0  0  0  0
 39 84  1  0  0  0  0
 40 41  2  0  0  0  0
 40 45  1  0  0  0  0
 41 42  1  0  0  0  0
 41 85  1  0  0  0  0
 42 43  2  0  0  0  0
 42 47  1  0  0  0  0
 43 44  1  0  0  0  0
 43 46  1  0  0  0  0
 44 45  2  0  0  0  0
 44 86  1  0  0  0  0
 45 87  1  0  0  0  0
M  END
>  <charge>
0

>  <KI_NM>
2.13

>  <number_of_rotatable_bonds>
17

>  <lm5_entropy_jk>
42.441311785015955

>  <ligand_crystal_conformation>
A

$$$$
