3ral.pdb
 OpenBabel11252210453D

 43 45  0  0  1  0  0  0  0  0999 V2000
   65.9290  154.4770  -50.6280 N   0  0  0  0  0  0  0  0  0  0  0  0
   67.5100  153.6430  -52.2350 N   0  0  0  0  0  0  0  0  0  0  0  0
   64.5400  154.9390  -48.7590 N   0  0  0  0  0  0  0  0  0  0  0  0
   62.0910  152.8980  -42.8230 N   0  0  0  0  0  0  0  0  0  0  0  0
   68.3010  149.0040  -46.7840 C   0  0  0  0  0  0  0  0  0  0  0  0
   69.5480  149.5270  -47.1330 C   0  0  0  0  0  0  0  0  0  0  0  0
   69.6930  150.4990  -48.1540 C   0  0  0  0  0  0  0  0  0  0  0  0
   67.3130  150.2680  -48.5940 C   0  0  0  0  0  0  0  0  0  0  0  0
   67.1810  149.3840  -47.5300 C   0  0  0  0  0  0  0  0  0  0  0  0
   70.6720  148.0130  -45.6540 C   0  0  0  0  0  0  0  0  0  0  0  0
   68.5600  150.8560  -48.8740 C   0  0  0  0  0  0  0  0  0  0  0  0
   68.6080  151.8670  -49.9910 C   0  0  0  0  0  0  0  0  0  0  0  0
   67.5890  152.8790  -49.9190 C   0  0  0  0  0  0  0  0  0  0  0  0
   67.0580  153.6660  -50.9550 C   0  0  0  0  0  0  0  0  0  0  0  0
   65.5990  154.2600  -49.3360 C   0  0  0  0  0  0  0  0  0  0  0  0
   63.8460  154.6200  -47.5550 C   0  0  0  0  0  0  0  0  0  0  0  0
   64.0430  153.4610  -46.7900 C   0  0  0  0  0  0  0  0  0  0  0  0
   63.2820  153.2610  -45.6350 C   0  0  0  0  0  0  0  0  0  0  0  0
   62.3130  154.1880  -45.2390 C   0  0  0  0  0  0  0  0  0  0  0  0
   62.1250  155.3520  -46.0000 C   0  0  0  0  0  0  0  0  0  0  0  0
   62.8770  155.5690  -47.1470 C   0  0  0  0  0  0  0  0  0  0  0  0
   60.1040  153.1330  -44.5070 O   0  0  0  0  0  0  0  0  0  0  0  0
   60.8920  155.0830  -43.1870 O   0  0  0  0  0  0  0  0  0  0  0  0
   69.4190  151.7770  -50.8990 O   0  0  0  0  0  0  0  0  0  0  0  0
   70.7390  149.1680  -46.5360 O   0  0  0  0  0  0  0  0  0  0  0  0
   66.7100  153.1180  -48.4480 S   0  0  0  0  0  0  0  0  0  0  0  0
   61.2380  153.8620  -43.9340 S   0  0  0  0  0  0  0  0  0  0  0  0
   68.1630  148.3070  -45.9580 H   0  0  0  0  0  0  0  0  0  0  0  0
   67.0740  154.2340  -52.9660 H   0  0  0  0  0  0  0  0  0  0  0  0
   68.3600  153.1240  -52.4690 H   0  0  0  0  0  0  0  0  0  0  0  0
   70.6640  150.9460  -48.3550 H   0  0  0  0  0  0  0  0  0  0  0  0
   63.9700  155.5430  -49.4100 H   0  0  0  0  0  0  0  0  0  0  0  0
   66.4380  150.4790  -49.2030 H   0  0  0  0  0  0  0  0  0  0  0  0
   62.1910  151.8760  -43.0840 H   0  0  0  0  0  0  0  0  0  0  0  0
   61.9300  153.0060  -41.8130 H   0  0  0  0  0  0  0  0  0  0  0  0
   66.1980  148.9950  -47.2690 H   0  0  0  0  0  0  0  0  0  0  0  0
   71.7430  147.7850  -45.4750 H   0  0  0  0  0  0  0  0  0  0  0  0
   70.1720  147.1630  -46.1740 H   0  0  0  0  0  0  0  0  0  0  0  0
   70.1240  148.2940  -44.7290 H   0  0  0  0  0  0  0  0  0  0  0  0
   64.7510  152.6790  -47.0680 H   0  0  0  0  0  0  0  0  0  0  0  0
   63.4710  152.3500  -45.0540 H   0  0  0  0  0  0  0  0  0  0  0  0
   61.3800  156.1070  -45.7180 H   0  0  0  0  0  0  0  0  0  0  0  0
   62.7010  156.4640  -47.7440 H   0  0  0  0  0  0  0  0  0  0  0  0
  1 14  1  0  0  0  0
  1 15  2  0  0  0  0
  2 14  1  0  0  0  0
  2 29  1  0  0  0  0
  2 30  1  0  0  0  0
  3 15  1  0  0  0  0
  3 16  1  0  0  0  0
  3 32  1  0  0  0  0
  4 27  1  0  0  0  0
  4 34  1  0  0  0  0
  4 35  1  0  0  0  0
  5  6  2  0  0  0  0
  5  9  1  0  0  0  0
  5 28  1  0  0  0  0
  6  7  1  0  0  0  0
  6 25  1  0  0  0  0
  7 11  2  0  0  0  0
  7 31  1  0  0  0  0
  8  9  2  0  0  0  0
  8 11  1  0  0  0  0
  8 33  1  0  0  0  0
  9 36  1  0  0  0  0
 10 25  1  0  0  0  0
 10 37  1  0  0  0  0
 10 38  1  0  0  0  0
 10 39  1  0  0  0  0
 12 11  1  0  0  0  0
 12 13  1  0  0  0  0
 12 24  2  0  0  0  0
 13 14  2  0  0  0  0
 13 26  1  0  0  0  0
 15 26  1  0  0  0  0
 16 17  2  0  0  0  0
 16 21  1  0  0  0  0
 17 18  1  0  0  0  0
 17 40  1  0  0  0  0
 18 19  2  0  0  0  0
 18 41  1  0  0  0  0
 19 20  1  0  0  0  0
 19 27  1  0  0  0  0
 20 21  2  0  0  0  0
 20 42  1  0  0  0  0
 21 43  1  0  0  0  0
 22 27  2  0  0  0  0
 23 27  2  0  0  0  0
M  END
>  <lm5_entropy_jk>
33.50945403317048

>  <number_of_rotatable_bonds>
6

>  <IC50_NM>
100

>  <charge>
0

$$$$
