3rkb.pdb
 OpenBabel11252210453D

 39 41  0  0  0  0  0  0  0  0999 V2000
   67.3550  152.9410  -49.7460 C   0  0  0  0  0  0  0  0  0  0  0  0
   66.8040  153.7110  -50.8050 C   0  0  0  0  0  0  0  0  0  0  0  0
   65.7130  154.5600  -50.4910 N   0  0  0  0  0  0  0  0  0  0  0  0
   65.3930  154.4010  -49.1800 C   0  0  0  0  0  0  0  0  0  0  0  0
   66.4560  153.1810  -48.2920 S   0  0  0  0  0  0  0  0  0  0  0  0
   68.4350  152.0260  -49.8920 C   0  0  0  0  0  0  0  0  0  0  0  0
   67.2580  153.6230  -52.0790 N   0  0  0  0  0  0  0  0  0  0  0  0
   64.4180  155.1340  -48.5660 N   0  0  0  0  0  0  0  0  0  0  0  0
   69.0740  151.9270  -50.9420 O   0  0  0  0  0  0  0  0  0  0  0  0
   69.7630  149.2910  -46.9320 C   0  0  0  0  0  0  0  0  0  0  0  0
   70.6610  150.1250  -47.5310 N   0  0  0  0  0  0  0  0  0  0  0  0
   70.1910  151.0330  -48.4190 C   0  0  0  0  0  0  0  0  0  0  0  0
   68.8240  151.1270  -48.7610 C   0  0  0  0  0  0  0  0  0  0  0  0
   67.9090  150.2890  -48.1160 C   0  0  0  0  0  0  0  0  0  0  0  0
   68.3860  149.3610  -47.1850 C   0  0  0  0  0  0  0  0  0  0  0  0
   62.6700  153.4360  -45.5690 C   0  0  0  0  0  0  0  0  0  0  0  0
   63.1220  153.6030  -47.0280 C   0  0  0  0  0  0  0  0  0  0  0  0
   63.9610  154.8910  -47.1640 C   0  0  0  0  0  0  0  0  0  0  0  0
   63.1220  156.1120  -46.7230 C   0  0  0  0  0  0  0  0  0  0  0  0
   62.7030  155.9530  -45.2540 C   0  0  0  0  0  0  0  0  0  0  0  0
   61.9000  154.6600  -45.0480 C   0  0  0  0  0  0  0  0  0  0  0  0
   66.8850  154.2240  -52.8350 H   0  0  0  0  0  0  0  0  0  0  0  0
   68.0930  153.0500  -52.2840 H   0  0  0  0  0  0  0  0  0  0  0  0
   63.6830  155.5570  -49.1770 H   0  0  0  0  0  0  0  0  0  0  0  0
   70.1580  148.5450  -46.2270 H   0  0  0  0  0  0  0  0  0  0  0  0
   70.9260  151.7120  -48.8790 H   0  0  0  0  0  0  0  0  0  0  0  0
   66.8360  150.3340  -48.3260 H   0  0  0  0  0  0  0  0  0  0  0  0
   67.6960  148.6920  -46.6620 H   0  0  0  0  0  0  0  0  0  0  0  0
   63.5700  153.2740  -44.9270 H   0  0  0  0  0  0  0  0  0  0  0  0
   62.0250  152.5370  -45.4840 H   0  0  0  0  0  0  0  0  0  0  0  0
   63.7330  152.7170  -47.3140 H   0  0  0  0  0  0  0  0  0  0  0  0
   62.2380  153.6690  -47.7010 H   0  0  0  0  0  0  0  0  0  0  0  0
   64.8700  154.8140  -46.5230 H   0  0  0  0  0  0  0  0  0  0  0  0
   62.2110  156.1870  -47.3650 H   0  0  0  0  0  0  0  0  0  0  0  0
   63.7060  157.0470  -46.8300 H   0  0  0  0  0  0  0  0  0  0  0  0
   62.0770  156.8290  -44.9590 H   0  0  0  0  0  0  0  0  0  0  0  0
   63.6090  155.9350  -44.6040 H   0  0  0  0  0  0  0  0  0  0  0  0
   61.6900  154.5250  -43.9610 H   0  0  0  0  0  0  0  0  0  0  0  0
   60.9340  154.7580  -45.5880 H   0  0  0  0  0  0  0  0  0  0  0  0
  1  5  1  0  0  0  0
  2  3  1  0  0  0  0
  2  1  2  0  0  0  0
  3  4  2  0  0  0  0
  4  8  1  0  0  0  0
  4  5  1  0  0  0  0
  6  1  1  0  0  0  0
  6 13  1  0  0  0  0
  7  2  1  0  0  0  0
  7 22  1  0  0  0  0
  7 23  1  0  0  0  0
  8 18  1  0  0  0  0
  8 24  1  0  0  0  0
  9  6  2  0  0  0  0
 10 25  1  0  0  0  0
 11 10  2  0  0  0  0
 12 11  1  0  0  0  0
 12 26  1  0  0  0  0
 13 12  2  0  0  0  0
 13 14  1  0  0  0  0
 14 15  2  0  0  0  0
 14 27  1  0  0  0  0
 15 10  1  0  0  0  0
 15 28  1  0  0  0  0
 16 21  1  0  0  0  0
 16 29  1  0  0  0  0
 16 30  1  0  0  0  0
 17 16  1  0  0  0  0
 17 31  1  0  0  0  0
 17 32  1  0  0  0  0
 18 17  1  0  0  0  0
 18 19  1  0  0  0  0
 18 33  1  0  0  0  0
 19 20  1  0  0  0  0
 19 34  1  0  0  0  0
 19 35  1  0  0  0  0
 20 21  1  0  0  0  0
 20 36  1  0  0  0  0
 20 37  1  0  0  0  0
 21 38  1  0  0  0  0
 21 39  1  0  0  0  0
M  END
>  <lm5_entropy_jk>
20.214453483104165

>  <number_of_rotatable_bonds>
4

>  <IC50_NM>
380

>  <charge>
0

$$$$
