22d-chB.pdb
 OpenBabel11252210453D

 91 95  0  0  1  0  0  0  0  0999 V2000
    1.8580    2.1990   11.6620 C   0  0  0  0  0  0  0  0  0  0  0  0
    2.4440    0.9670   11.9720 O   0  0  0  0  0  0  0  0  0  0  0  0
    2.6970    3.2850   11.3390 C   0  0  0  0  0  0  0  0  0  0  0  0
    5.3280    0.4550   16.6480 O   0  0  0  0  0  0  0  0  0  0  0  0
    3.6300   -1.4930   13.1010 O   0  0  0  0  0  0  0  0  0  0  0  0
    2.1110    4.4000   10.7210 C   0  0  0  0  0  0  0  0  0  0  0  0
    4.9000    0.1710   14.0290 N   0  0  0  0  0  0  0  0  0  0  0  0
    0.7380    4.4360   10.4720 C   0  0  0  0  0  0  0  0  0  0  0  0
    2.9270   -5.1980   16.9460 C   0  0  0  0  0  0  0  0  0  0  0  0
    5.5640   -3.8040   16.7670 N   0  0  0  0  0  0  0  0  0  0  0  0
   -0.0850    3.3910   10.8950 C   0  0  0  0  0  0  0  0  0  0  0  0
    3.3050   -6.0880   17.9630 C   0  0  0  0  0  0  0  0  0  0  0  0
    5.9920   -4.6780   14.7080 O   0  0  0  0  0  0  0  0  0  0  0  0
    0.4590    2.2600   11.5200 C   0  0  0  0  0  0  0  0  0  0  0  0
    3.1280   -7.4620   17.7890 C   0  0  0  0  0  0  0  0  0  0  0  0
    4.1590    3.2530   11.6200 C   0  0  0  0  0  0  0  0  0  0  0  0
    2.5990   -7.9580   16.5940 C   0  0  0  0  0  0  0  0  0  0  0  0
   -0.4270    1.1710   12.0200 C   0  0  0  0  0  0  0  0  0  0  0  0
    2.2190   -7.0710   15.5820 C   0  0  0  0  0  0  0  0  0  0  0  0
    5.6670  -10.8940   18.4980 C   0  0  0  0  0  0  0  0  0  0  0  0
    2.3740   -5.6940   15.7560 C   0  0  0  0  0  0  0  0  0  0  0  0
    2.6090    0.7160   13.3860 C   0  0  0  0  0  0  0  0  0  0  0  0
    3.7220   -0.3370   13.4760 C   0  0  0  0  0  0  0  0  0  0  0  0
    5.9150   -0.7280   14.6170 C   0  0  1  0  0  0  0  0  0  0  0  0
    4.5270  -11.7680   18.0430 C   0  0  0  0  0  0  0  0  0  0  0  0
    8.1450   -0.2250   10.6680 C   0  0  0  0  0  0  0  0  0  0  0  0
    7.8640    1.0880   10.2800 C   0  0  0  0  0  0  0  0  0  0  0  0
    7.4380    2.0150   11.2370 C   0  0  0  0  0  0  0  0  0  0  0  0
    7.2720    1.6240   12.5670 C   0  0  0  0  0  0  0  0  0  0  0  0
    7.5340    0.2990   12.9560 C   0  0  0  0  0  0  0  0  0  0  0  0
    7.9830   -0.6220   11.9980 C   0  0  0  0  0  0  0  0  0  0  0  0
    7.3210   -0.1180   14.3870 C   0  0  0  0  0  0  0  0  0  0  0  0
    5.6120   -0.8830   16.1410 C   0  0  2  0  0  0  0  0  0  0  0  0
    4.3340   -1.6370   16.5180 C   0  0  0  0  0  0  0  0  0  0  0  0
    4.2970   -3.1580   16.3230 C   0  0  2  0  0  0  0  0  0  0  0  0
    6.2320   -4.6570   15.9080 C   0  0  0  0  0  0  0  0  0  0  0  0
    7.3410   -5.5470   16.5070 C   0  0  1  0  0  0  0  0  0  0  0  0
    7.5010   -5.2190   17.9190 O   0  0  0  0  0  0  0  0  0  0  0  0
    3.1100   -3.7220   17.1470 C   0  0  0  0  0  0  0  0  0  0  0  0
    7.1700   -6.3090   18.7360 C   0  0  0  0  0  0  0  0  0  0  0  0
    7.1830   -6.1920   19.9300 O   0  0  0  0  0  0  0  0  0  0  0  0
    6.8290   -7.3990   17.9160 N   0  0  0  0  0  0  0  0  0  0  0  0
    6.9730   -7.0510   16.4710 C   0  0  0  0  0  0  0  0  0  0  0  0
    6.8010   -8.7580   18.3850 C   0  0  0  0  0  0  0  0  0  0  0  0
    5.7630   -9.6040   17.9620 C   0  0  0  0  0  0  0  0  0  0  0  0
    6.5930  -11.3430   19.4450 C   0  0  0  0  0  0  0  0  0  0  0  0
    7.6390  -10.5000   19.8380 C   0  0  0  0  0  0  0  0  0  0  0  0
    7.7590   -9.2150   19.3090 C   0  0  0  0  0  0  0  0  0  0  0  0
    3.3170  -11.3120   18.4170 F   0  0  0  0  0  0  0  0  0  0  0  0
    4.4190  -11.9080   16.7090 F   0  0  0  0  0  0  0  0  0  0  0  0
    4.5270  -13.0390   18.4820 F   0  0  0  0  0  0  0  0  0  0  0  0
    4.5560    4.2730   11.8440 H   0  0  0  0  0  0  0  0  0  0  0  0
    4.7130    2.8610   10.7310 H   0  0  0  0  0  0  0  0  0  0  0  0
    4.3940    2.6000   12.4930 H   0  0  0  0  0  0  0  0  0  0  0  0
    2.7410    5.2330   10.3960 H   0  0  0  0  0  0  0  0  0  0  0  0
    4.9180    1.1270   14.4420 H   0  0  0  0  0  0  0  0  0  0  0  0
    5.7380   -3.7990   17.7860 H   0  0  0  0  0  0  0  0  0  0  0  0
    4.1740   -1.4170   17.6060 H   0  0  0  0  0  0  0  0  0  0  0  0
    3.7270   -5.7060   18.8930 H   0  0  0  0  0  0  0  0  0  0  0  0
    3.3980   -8.1440   18.5970 H   0  0  0  0  0  0  0  0  0  0  0  0
    2.4800   -9.0340   16.4570 H   0  0  0  0  0  0  0  0  0  0  0  0
    1.7960   -7.4530   14.6570 H   0  0  0  0  0  0  0  0  0  0  0  0
    2.0480   -5.0050   14.9800 H   0  0  0  0  0  0  0  0  0  0  0  0
    2.9120    1.6500   13.9040 H   0  0  0  0  0  0  0  0  0  0  0  0
    5.8700   -1.7370   14.1270 H   0  0  0  0  0  0  0  0  0  0  0  0
    1.6580    0.3130   13.7980 H   0  0  0  0  0  0  0  0  0  0  0  0
    0.3040    5.2790    9.9280 H   0  0  0  0  0  0  0  0  0  0  0  0
   -1.1590    3.4300   10.7180 H   0  0  0  0  0  0  0  0  0  0  0  0
   -1.4330    1.2250   11.5380 H   0  0  0  0  0  0  0  0  0  0  0  0
   -0.5850    1.3030   13.1190 H   0  0  0  0  0  0  0  0  0  0  0  0
    0.0090    0.1660   11.8240 H   0  0  0  0  0  0  0  0  0  0  0  0
    6.2200    0.7790   17.0440 H   0  0  0  0  0  0  0  0  0  0  0  0
    8.5020   -0.9420    9.9290 H   0  0  0  0  0  0  0  0  0  0  0  0
    7.9800    1.3960    9.2400 H   0  0  0  0  0  0  0  0  0  0  0  0
    7.2410    3.0510   10.9490 H   0  0  0  0  0  0  0  0  0  0  0  0
    6.9350    2.3540   13.3060 H   0  0  0  0  0  0  0  0  0  0  0  0
    8.2220   -1.6400   12.2970 H   0  0  0  0  0  0  0  0  0  0  0  0
    8.0940   -0.8550   14.7110 H   0  0  0  0  0  0  0  0  0  0  0  0
    7.4420    0.7790   15.0530 H   0  0  0  0  0  0  0  0  0  0  0  0
    6.4980   -1.2860   16.6810 H   0  0  0  0  0  0  0  0  0  0  0  0
    3.4690   -1.2020   15.9630 H   0  0  0  0  0  0  0  0  0  0  0  0
    4.1450   -3.3910   15.2330 H   0  0  0  0  0  0  0  0  0  0  0  0
    8.3310   -5.3170   16.0430 H   0  0  0  0  0  0  0  0  0  0  0  0
    3.2820   -3.5110   18.2340 H   0  0  0  0  0  0  0  0  0  0  0  0
    2.1800   -3.1770   16.8580 H   0  0  0  0  0  0  0  0  0  0  0  0
    7.7790   -7.6630   15.9900 H   0  0  0  0  0  0  0  0  0  0  0  0
    5.9950   -7.2390   15.9540 H   0  0  0  0  0  0  0  0  0  0  0  0
    5.0480   -9.2570   17.2090 H   0  0  0  0  0  0  0  0  0  0  0  0
    6.5320  -12.3440   19.8840 H   0  0  0  0  0  0  0  0  0  0  0  0
    8.3750  -10.8560   20.5690 H   0  0  0  0  0  0  0  0  0  0  0  0
    8.5980   -8.5860   19.6200 H   0  0  0  0  0  0  0  0  0  0  0  0
  1  3  1  0  0  0  0
  1  2  1  0  0  0  0
  2 22  1  0  0  0  0
  3 16  1  0  0  0  0
  4 72  1  0  0  0  0
  5 23  2  0  0  0  0
  6 55  1  0  0  0  0
  6  3  2  0  0  0  0
  7 24  1  0  0  0  0
  7 56  1  0  0  0  0
  8  6  1  0  0  0  0
  9 39  1  0  0  0  0
  9 12  1  0  0  0  0
 10 57  1  0  0  0  0
 11  8  2  0  0  0  0
 11 14  1  0  0  0  0
 12 59  1  0  0  0  0
 13 36  2  0  0  0  0
 14  1  2  0  0  0  0
 15 12  2  0  0  0  0
 15 60  1  0  0  0  0
 16 54  1  0  0  0  0
 17 15  1  0  0  0  0
 18 14  1  0  0  0  0
 18 70  1  0  0  0  0
 19 21  1  0  0  0  0
 19 17  2  0  0  0  0
 20 46  1  0  0  0  0
 21  9  2  0  0  0  0
 22 64  1  0  0  0  0
 22 23  1  0  0  0  0
 22 66  1  0  0  0  0
 23  7  1  0  0  0  0
 24 65  1  6  0  0  0
 24 33  1  0  0  0  0
 25 51  1  0  0  0  0
 25 20  1  0  0  0  0
 26 31  1  0  0  0  0
 27 26  2  0  0  0  0
 27 28  1  0  0  0  0
 28 29  2  0  0  0  0
 29 30  1  0  0  0  0
 29 76  1  0  0  0  0
 30 32  1  0  0  0  0
 31 77  1  0  0  0  0
 31 30  2  0  0  0  0
 32 78  1  0  0  0  0
 32 24  1  0  0  0  0
 32 79  1  0  0  0  0
 33 80  1  1  0  0  0
 33  4  1  0  0  0  0
 33 34  1  0  0  0  0
 34 58  1  0  0  0  0
 35 82  1  6  0  0  0
 35 34  1  0  0  0  0
 35 10  1  0  0  0  0
 35 39  1  0  0  0  0
 36 10  1  0  0  0  0
 36 37  1  0  0  0  0
 37 83  1  6  0  0  0
 37 38  1  0  0  0  0
 38 40  1  0  0  0  0
 39 84  1  0  0  0  0
 40 41  2  0  0  0  0
 42 44  1  0  0  0  0
 42 40  1  0  0  0  0
 43 37  1  0  0  0  0
 43 42  1  0  0  0  0
 44 48  2  0  0  0  0
 45 20  2  0  0  0  0
 45 44  1  0  0  0  0
 46 89  1  0  0  0  0
 46 47  2  0  0  0  0
 47 90  1  0  0  0  0
 48 47  1  0  0  0  0
 48 91  1  0  0  0  0
 49 25  1  0  0  0  0
 50 25  1  0  0  0  0
 52 16  1  0  0  0  0
 53 16  1  0  0  0  0
 61 17  1  0  0  0  0
 62 19  1  0  0  0  0
 63 21  1  0  0  0  0
 67  8  1  0  0  0  0
 68 11  1  0  0  0  0
 69 18  1  0  0  0  0
 71 18  1  0  0  0  0
 73 26  1  0  0  0  0
 74 27  1  0  0  0  0
 75 28  1  0  0  0  0
 81 34  1  0  0  0  0
 85 39  1  0  0  0  0
 86 43  1  0  0  0  0
 87 43  1  0  0  0  0
 88 45  1  0  0  0  0
M  END
>  <charge>
0

>  <KI_NM>
21.63

>  <number_of_rotatable_bonds>
17

>  <lm5_entropy_jk>
40.025375123851944

>  <ligand_crystal_conformation>
B

$$$$
