3F17
 OpenBabel11252210453D

 35 36  0  0  0  0  0  0  0  0999 V2000
    3.8860   23.4980    5.4450 C   0  0  0  0  0  0  0  0  0  0  0  0
    8.1180   27.0900    1.6980 N   0  0  0  0  0  0  0  0  0  0  0  0
    6.9900   24.7680    0.0630 O   0  0  0  0  0  0  0  0  0  0  0  0
    8.2590   27.0530    3.4190 S   0  0  0  0  0  0  0  0  0  0  0  0
    4.9200   24.3100    4.7680 C   0  0  0  0  0  0  0  0  0  0  0  0
    8.5270   23.7810    1.4210 N   0  0  0  0  0  0  0  0  0  0  0  0
    7.9150   22.5990    0.9520 O   0  0  0  0  0  0  0  0  0  0  0  0
    4.2840   22.5190    6.3730 C   0  0  0  0  0  0  0  0  0  0  0  0
    8.0160   28.4240    3.8610 O   0  0  0  0  0  0  0  0  0  0  0  0
    2.5140   23.7330    5.2550 C   0  0  0  0  0  0  0  0  0  0  0  0
    9.5400   26.4660    3.8230 O   0  0  0  0  0  0  0  0  0  0  0  0
    4.6430   25.6400    4.4020 C   0  0  0  0  0  0  0  0  0  0  0  0
    3.3330   21.8190    7.1170 C   0  0  0  0  0  0  0  0  0  0  0  0
    1.5660   23.0290    6.0020 C   0  0  0  0  0  0  0  0  0  0  0  0
    6.2190   23.8090    4.5590 C   0  0  0  0  0  0  0  0  0  0  0  0
    1.9710   22.0740    6.9390 C   0  0  0  0  0  0  0  0  0  0  0  0
    5.6630   26.4810    3.9590 C   0  0  0  0  0  0  0  0  0  0  0  0
    7.2410   24.6520    4.1280 C   0  0  0  0  0  0  0  0  0  0  0  0
    8.9030   26.1470    0.8780 C   0  0  0  0  0  0  0  0  0  0  0  0
    6.9740   26.0030    3.8620 C   0  0  0  0  0  0  0  0  0  0  0  0
    8.0420   24.8960    0.6640 C   0  0  0  0  0  0  0  0  0  0  0  0
    8.0750   28.0280    1.2500 H   0  0  0  0  0  0  0  0  0  0  0  0
    9.5550   23.6180    1.5310 H   0  0  0  0  0  0  0  0  0  0  0  0
    8.1770   21.8780    1.7250 H   0  0  0  0  0  0  0  0  0  0  0  0
    5.3420   22.3140    6.5420 H   0  0  0  0  0  0  0  0  0  0  0  0
    2.1620   24.4610    4.5200 H   0  0  0  0  0  0  0  0  0  0  0  0
    3.6230   26.0220    4.4700 H   0  0  0  0  0  0  0  0  0  0  0  0
    3.6640   21.0800    7.8420 H   0  0  0  0  0  0  0  0  0  0  0  0
    0.5020   23.2240    5.8440 H   0  0  0  0  0  0  0  0  0  0  0  0
    6.4480   22.7530    4.7210 H   0  0  0  0  0  0  0  0  0  0  0  0
    1.2260   21.5340    7.5250 H   0  0  0  0  0  0  0  0  0  0  0  0
    5.4240   27.5180    3.7010 H   0  0  0  0  0  0  0  0  0  0  0  0
    8.2550   24.2450    4.0030 H   0  0  0  0  0  0  0  0  0  0  0  0
    9.1470   26.5900   -0.1330 H   0  0  0  0  0  0  0  0  0  0  0  0
    9.8980   25.8910    1.3530 H   0  0  0  0  0  0  0  0  0  0  0  0
  1  5  1  0  0  0  0
  1 10  2  0  0  0  0
  1  8  1  0  0  0  0
  2 19  1  0  0  0  0
  2  4  1  0  0  0  0
  2 22  1  0  0  0  0
  3 21  2  0  0  0  0
  4 11  2  0  0  0  0
  4 20  1  0  0  0  0
  4  9  2  0  0  0  0
  5 15  2  0  0  0  0
  5 12  1  0  0  0  0
  6  7  1  0  0  0  0
  6 21  1  0  0  0  0
  6 23  1  0  0  0  0
  7 24  1  0  0  0  0
  8 13  2  0  0  0  0
  8 25  1  0  0  0  0
 10 14  1  0  0  0  0
 10 26  1  0  0  0  0
 12 17  2  0  0  0  0
 12 27  1  0  0  0  0
 13 16  1  0  0  0  0
 13 28  1  0  0  0  0
 14 16  2  0  0  0  0
 14 29  1  0  0  0  0
 15 18  1  0  0  0  0
 15 30  1  0  0  0  0
 16 31  1  0  0  0  0
 17 20  1  0  0  0  0
 17 32  1  0  0  0  0
 18 20  2  0  0  0  0
 18 33  1  0  0  0  0
 19 21  1  0  0  0  0
 19 34  1  0  0  0  0
 19 35  1  0  0  0  0
M  END
>  <lm5_entropy_jk>
21.752168152254768

>  <number_of_rotatable_bonds>
6

>  <deltaG_kcalmol>
-11.78

>  <charge>
0

$$$$
