3RAL
 OpenBabel11252210453D

 43 45  0  0  1  0  0  0  0  0999 V2000
   65.9790  154.3570  -50.6270 N   0  0  0  0  0  0  0  0  0  0  0  0
   67.4380  153.3590  -52.1220 N   0  0  0  0  0  0  0  0  0  0  0  0
   64.5420  154.8200  -48.8610 N   0  0  0  0  0  0  0  0  0  0  0  0
   61.9760  153.4070  -43.0420 N   0  0  0  0  0  0  0  0  0  0  0  0
   68.2720  149.1310  -46.4390 C   0  0  0  0  0  0  0  0  0  0  0  0
   69.5360  149.4200  -46.9740 C   0  0  0  0  0  0  0  0  0  0  0  0
   69.6570  150.2730  -48.0830 C   0  0  0  0  0  0  0  0  0  0  0  0
   67.2490  150.4640  -48.1510 C   0  0  0  0  0  0  0  0  0  0  0  0
   67.1250  149.6550  -47.0280 C   0  0  0  0  0  0  0  0  0  0  0  0
   70.5440  147.6490  -45.6160 C   0  0  0  0  0  0  0  0  0  0  0  0
   68.5030  150.8310  -48.6790 C   0  0  0  0  0  0  0  0  0  0  0  0
   68.5370  151.7840  -49.8690 C   0  0  0  0  0  0  0  0  0  0  0  0
   67.5740  152.8870  -49.8020 C   0  0  0  0  0  0  0  0  0  0  0  0
   67.0710  153.5580  -50.8640 C   0  0  0  0  0  0  0  0  0  0  0  0
   65.6910  154.2830  -49.3420 C   0  0  0  0  0  0  0  0  0  0  0  0
   63.8350  154.6610  -47.6910 C   0  0  0  0  0  0  0  0  0  0  0  0
   63.8600  153.4680  -46.9710 C   0  0  0  0  0  0  0  0  0  0  0  0
   63.0760  153.3070  -45.8260 C   0  0  0  0  0  0  0  0  0  0  0  0
   62.2620  154.3730  -45.4180 C   0  0  0  0  0  0  0  0  0  0  0  0
   62.2220  155.5820  -46.1190 C   0  0  0  0  0  0  0  0  0  0  0  0
   63.0140  155.6980  -47.2590 C   0  0  0  0  0  0  0  0  0  0  0  0
   60.1550  153.1440  -44.4270 O   0  0  0  0  0  0  0  0  0  0  0  0
   60.8130  155.3620  -43.3820 O   0  0  0  0  0  0  0  0  0  0  0  0
   69.2270  151.5920  -50.8560 O   0  0  0  0  0  0  0  0  0  0  0  0
   70.6660  148.8480  -46.4290 O   0  0  0  0  0  0  0  0  0  0  0  0
   66.8560  153.4680  -48.3390 S   0  0  0  0  0  0  0  0  0  0  0  0
   61.1480  154.1480  -44.1100 S   0  0  0  0  0  0  0  0  0  0  0  0
   68.1550  148.4950  -45.5690 H   0  0  0  0  0  0  0  0  0  0  0  0
   67.2020  154.0630  -52.8130 H   0  0  0  0  0  0  0  0  0  0  0  0
   68.2880  152.8180  -52.2140 H   0  0  0  0  0  0  0  0  0  0  0  0
   70.6400  150.4950  -48.4850 H   0  0  0  0  0  0  0  0  0  0  0  0
   64.0440  155.3900  -49.5360 H   0  0  0  0  0  0  0  0  0  0  0  0
   66.3490  150.8540  -48.6060 H   0  0  0  0  0  0  0  0  0  0  0  0
   61.4150  152.6030  -43.3470 H   0  0  0  0  0  0  0  0  0  0  0  0
   61.3620  153.9680  -42.4580 H   0  0  0  0  0  0  0  0  0  0  0  0
   66.1420  149.4480  -46.6120 H   0  0  0  0  0  0  0  0  0  0  0  0
   70.0700  147.8550  -44.6450 H   0  0  0  0  0  0  0  0  0  0  0  0
   71.5150  147.1650  -45.4690 H   0  0  0  0  0  0  0  0  0  0  0  0
   69.9170  146.9090  -46.1370 H   0  0  0  0  0  0  0  0  0  0  0  0
   64.4570  152.6330  -47.3150 H   0  0  0  0  0  0  0  0  0  0  0  0
   63.1060  152.3540  -45.2880 H   0  0  0  0  0  0  0  0  0  0  0  0
   61.5680  156.4130  -45.8270 H   0  0  0  0  0  0  0  0  0  0  0  0
   62.9610  156.6090  -47.8390 H   0  0  0  0  0  0  0  0  0  0  0  0
  1 14  1  0  0  0  0
  1 15  2  0  0  0  0
  2 14  1  0  0  0  0
  2 29  1  0  0  0  0
  2 30  1  0  0  0  0
  3 15  1  0  0  0  0
  3 16  1  0  0  0  0
  3 32  1  0  0  0  0
  4 27  1  0  0  0  0
  4 34  1  0  0  0  0
  4 35  1  0  0  0  0
  5  6  2  0  0  0  0
  5  9  1  0  0  0  0
  5 28  1  0  0  0  0
  6  7  1  0  0  0  0
  6 25  1  0  0  0  0
  7 11  2  0  0  0  0
  7 31  1  0  0  0  0
  8  9  2  0  0  0  0
  8 11  1  0  0  0  0
  8 33  1  0  0  0  0
  9 36  1  0  0  0  0
 10 25  1  0  0  0  0
 10 37  1  0  0  0  0
 10 38  1  0  0  0  0
 10 39  1  0  0  0  0
 12 11  1  0  0  0  0
 12 13  1  0  0  0  0
 12 24  2  0  0  0  0
 13 14  2  0  0  0  0
 13 26  1  0  0  0  0
 15 26  1  0  0  0  0
 16 17  2  0  0  0  0
 16 21  1  0  0  0  0
 17 18  1  0  0  0  0
 17 40  1  0  0  0  0
 18 19  2  0  0  0  0
 18 41  1  0  0  0  0
 19 20  1  0  0  0  0
 19 27  1  0  0  0  0
 20 21  2  0  0  0  0
 20 42  1  0  0  0  0
 21 43  1  0  0  0  0
 22 27  2  0  0  0  0
 23 27  2  0  0  0  0
M  END
>  <lm5_entropy_jk>
33.50945403317048

>  <number_of_rotatable_bonds>
6

>  <IC50_NM>
100

>  <charge>
0

$$$$
