3RAL
 OpenBabel11252210453D

 43 45  0  0  1  0  0  0  0  0999 V2000
   65.8020  154.5410  -50.6070 N   0  0  0  0  0  0  0  0  0  0  0  0
   67.2590  153.6960  -52.1930 N   0  0  0  0  0  0  0  0  0  0  0  0
   64.4290  154.9840  -48.8040 N   0  0  0  0  0  0  0  0  0  0  0  0
   61.8570  153.8180  -42.9720 N   0  0  0  0  0  0  0  0  0  0  0  0
   69.0950  149.1630  -46.9490 C   0  0  0  0  0  0  0  0  0  0  0  0
   70.1550  149.9530  -47.4190 C   0  0  0  0  0  0  0  0  0  0  0  0
   69.9530  150.8520  -48.4610 C   0  0  0  0  0  0  0  0  0  0  0  0
   67.6230  150.1990  -48.5530 C   0  0  0  0  0  0  0  0  0  0  0  0
   67.8220  149.2830  -47.5150 C   0  0  0  0  0  0  0  0  0  0  0  0
   71.5900  149.3050  -45.5460 C   0  0  0  0  0  0  0  0  0  0  0  0
   68.6790  151.0000  -49.0360 C   0  0  0  0  0  0  0  0  0  0  0  0
   68.4520  151.9930  -50.1510 C   0  0  0  0  0  0  0  0  0  0  0  0
   67.3730  152.9590  -49.9510 C   0  0  0  0  0  0  0  0  0  0  0  0
   66.8620  153.7370  -50.9300 C   0  0  0  0  0  0  0  0  0  0  0  0
   65.4950  154.3370  -49.3400 C   0  0  0  0  0  0  0  0  0  0  0  0
   63.7070  154.8590  -47.6410 C   0  0  0  0  0  0  0  0  0  0  0  0
   63.6350  153.6600  -46.9330 C   0  0  0  0  0  0  0  0  0  0  0  0
   62.8320  153.5410  -45.7980 C   0  0  0  0  0  0  0  0  0  0  0  0
   62.1040  154.6620  -45.3790 C   0  0  0  0  0  0  0  0  0  0  0  0
   62.1540  155.8790  -46.0690 C   0  0  0  0  0  0  0  0  0  0  0  0
   62.9540  155.9480  -47.2100 C   0  0  0  0  0  0  0  0  0  0  0  0
   60.0790  153.3860  -44.2910 O   0  0  0  0  0  0  0  0  0  0  0  0
   60.6310  155.7150  -43.3680 O   0  0  0  0  0  0  0  0  0  0  0  0
   69.1120  151.9670  -51.1770 O   0  0  0  0  0  0  0  0  0  0  0  0
   71.4050  149.9060  -46.8440 O   0  0  0  0  0  0  0  0  0  0  0  0
   66.5200  153.2130  -48.4660 S   0  0  0  0  0  0  0  0  0  0  0  0
   60.9940  154.4880  -44.0590 S   0  0  0  0  0  0  0  0  0  0  0  0
   69.2350  148.4460  -46.1480 H   0  0  0  0  0  0  0  0  0  0  0  0
   66.9080  154.3630  -52.8690 H   0  0  0  0  0  0  0  0  0  0  0  0
   68.0970  153.1540  -52.3580 H   0  0  0  0  0  0  0  0  0  0  0  0
   70.7760  151.4710  -48.8000 H   0  0  0  0  0  0  0  0  0  0  0  0
   63.9780  155.5970  -49.4740 H   0  0  0  0  0  0  0  0  0  0  0  0
   66.6340  150.2920  -48.9890 H   0  0  0  0  0  0  0  0  0  0  0  0
   61.1280  153.1130  -43.0830 H   0  0  0  0  0  0  0  0  0  0  0  0
   61.4090  154.5720  -42.4520 H   0  0  0  0  0  0  0  0  0  0  0  0
   66.9920  148.6810  -47.1410 H   0  0  0  0  0  0  0  0  0  0  0  0
   72.5990  149.5120  -45.1630 H   0  0  0  0  0  0  0  0  0  0  0  0
   71.4270  148.2170  -45.6180 H   0  0  0  0  0  0  0  0  0  0  0  0
   70.8570  149.7250  -44.8370 H   0  0  0  0  0  0  0  0  0  0  0  0
   64.1680  152.7850  -47.2780 H   0  0  0  0  0  0  0  0  0  0  0  0
   62.7780  152.5800  -45.2740 H   0  0  0  0  0  0  0  0  0  0  0  0
   61.5640  156.7550  -45.7710 H   0  0  0  0  0  0  0  0  0  0  0  0
   62.9710  156.8640  -47.7850 H   0  0  0  0  0  0  0  0  0  0  0  0
  1 14  1  0  0  0  0
  1 15  2  0  0  0  0
  2 14  1  0  0  0  0
  2 29  1  0  0  0  0
  2 30  1  0  0  0  0
  3 15  1  0  0  0  0
  3 16  1  0  0  0  0
  3 32  1  0  0  0  0
  4 27  1  0  0  0  0
  4 34  1  0  0  0  0
  4 35  1  0  0  0  0
  5  6  2  0  0  0  0
  5  9  1  0  0  0  0
  5 28  1  0  0  0  0
  6  7  1  0  0  0  0
  6 25  1  0  0  0  0
  7 11  2  0  0  0  0
  7 31  1  0  0  0  0
  8  9  2  0  0  0  0
  8 11  1  0  0  0  0
  8 33  1  0  0  0  0
  9 36  1  0  0  0  0
 10 25  1  0  0  0  0
 10 37  1  0  0  0  0
 10 38  1  0  0  0  0
 10 39  1  0  0  0  0
 12 11  1  0  0  0  0
 12 13  1  0  0  0  0
 12 24  2  0  0  0  0
 13 14  2  0  0  0  0
 13 26  1  0  0  0  0
 15 26  1  0  0  0  0
 16 17  2  0  0  0  0
 16 21  1  0  0  0  0
 17 18  1  0  0  0  0
 17 40  1  0  0  0  0
 18 19  2  0  0  0  0
 18 41  1  0  0  0  0
 19 20  1  0  0  0  0
 19 27  1  0  0  0  0
 20 21  2  0  0  0  0
 20 42  1  0  0  0  0
 21 43  1  0  0  0  0
 22 27  2  0  0  0  0
 23 27  2  0  0  0  0
M  END
>  <lm5_entropy_jk>
33.50945403317048

>  <number_of_rotatable_bonds>
6

>  <IC50_NM>
100

>  <charge>
0

$$$$
