ra9.pdb
 OpenBabel11252210453D

 31 32  0  0  0  0  0  0  0  0999 V2000
   -3.7570    7.1230   13.0250 N   0  0  0  0  0  0  0  0  0  0  0  0
   -3.4640    4.7860   13.8020 C   0  0  0  0  0  0  0  0  0  0  0  0
   -1.5180    6.8560   13.4420 O   0  0  0  0  0  0  0  0  0  0  0  0
   -3.8890    3.7290   14.6180 C   0  0  0  0  0  0  0  0  0  0  0  0
   -1.7620   12.0100   11.9440 N   0  0  0  0  0  0  0  0  0  0  0  0
   -4.7400    2.7650   17.7180 O   0  0  0  0  0  0  0  0  0  0  0  0
   -0.2010   12.5940   14.0310 S   0  0  0  0  0  0  0  0  0  0  0  0
   -5.0430    3.8400   15.3890 C   0  0  0  0  0  0  0  0  0  0  0  0
   -1.4520   13.3130   11.7610 N   0  0  0  0  0  0  0  0  0  0  0  0
   -7.0060    2.6670   16.5510 O   0  0  0  0  0  0  0  0  0  0  0  0
   -5.5380    2.5420   16.5070 S   0  0  0  0  0  0  0  0  0  0  0  0
   -5.8090    5.0080   15.3120 C   0  0  0  0  0  0  0  0  0  0  0  0
   -0.3270   15.1690   12.8570 N   0  0  0  0  0  0  0  0  0  0  0  0
   -5.4050    6.0760   14.5060 C   0  0  0  0  0  0  0  0  0  0  0  0
   -5.3660    1.0220   15.8560 N   0  5  0  0  0  0  0  0  0  0  0  0
   -4.2070    5.9730   13.7780 C   0  0  0  0  0  0  0  0  0  0  0  0
   -2.4220    7.5440   12.9990 C   0  0  0  0  0  0  0  0  0  0  0  0
   -2.1750    8.9070   12.3750 C   0  0  0  0  0  0  0  0  0  0  0  0
   -1.2250   11.4640   13.0310 C   0  0  0  0  0  0  0  0  0  0  0  0
   -0.6610   13.8330   12.7350 C   0  0  0  0  0  0  0  0  0  0  0  0
   -1.3270    9.8480   13.6680 S   0  0  0  0  0  0  0  0  0  0  0  0
   -2.5570    4.6790   13.2030 H   0  0  0  0  0  0  0  0  0  0  0  0
   -4.4860    7.7590   12.6750 H   0  0  0  0  0  0  0  0  0  0  0  0
    0.5370   15.3920   13.3720 H   0  0  0  0  0  0  0  0  0  0  0  0
   -0.4680   15.7720   12.0310 H   0  0  0  0  0  0  0  0  0  0  0  0
   -4.4210    0.6300   16.2080 H   0  0  0  0  0  0  0  0  0  0  0  0
   -3.2840    2.8180   14.6170 H   0  0  0  0  0  0  0  0  0  0  0  0
   -6.7330    5.1300   15.8920 H   0  0  0  0  0  0  0  0  0  0  0  0
   -6.0020    6.9870   14.4580 H   0  0  0  0  0  0  0  0  0  0  0  0
   -1.5350    8.7930   11.4580 H   0  0  0  0  0  0  0  0  0  0  0  0
   -3.1120    9.4230   12.0380 H   0  0  0  0  0  0  0  0  0  0  0  0
  1 16  1  0  0  0  0
  1 17  1  0  0  0  0
  2  4  2  0  0  0  0
  2 16  1  0  0  0  0
  3 17  2  0  0  0  0
  4  8  1  0  0  0  0
  5  9  1  0  0  0  0
  5 19  2  0  0  0  0
  6 11  2  0  0  0  0
  7 19  1  0  0  0  0
  7 20  1  0  0  0  0
  8 11  1  0  0  0  0
  8 12  2  0  0  0  0
  9 20  2  0  0  0  0
 10 11  2  0  0  0  0
 11 15  1  0  0  0  0
 12 14  1  0  0  0  0
 13 20  1  0  0  0  0
 14 16  2  0  0  0  0
 17 18  1  0  0  0  0
 18 21  1  0  0  0  0
 19 21  1  0  0  0  0
 22  2  1  0  0  0  0
 23  1  1  0  0  0  0
 24 13  1  0  0  0  0
 25 13  1  0  0  0  0
 26 15  1  0  0  0  0
 27  4  1  0  0  0  0
 28 12  1  0  0  0  0
 29 14  1  0  0  0  0
 30 18  1  0  0  0  0
 31 18  1  0  0  0  0
M  CHG  1  15  -1
M  END
>  <deltaG_kcalmol>
-9.9

>  <number_of_rotatable_bonds>
6

>  <charge>
-1

>  <lm5_entropy_jk>
25.12029370685346

$$$$
