1IZH
 OpenBabel11252210453D

 99101  0  0  1  0  0  0  0  0999 V2000
    9.0360   -5.0380   16.4620 C   0  0  0  0  0  0  0  0  0  0  0  0
    9.8990   -5.2680   17.6490 C   0  0  0  0  0  0  0  0  0  0  0  0
    8.7740   -6.3490   15.8220 C   0  0  0  0  0  0  0  0  0  0  0  0
    9.7300   -4.0970   15.5470 C   0  0  0  0  0  0  0  0  0  0  0  0
    7.8460   -4.4710   16.9520 O   0  0  0  0  0  0  0  0  0  0  0  0
    6.8100   -4.1020   16.1560 C   0  0  0  0  0  0  0  0  0  0  0  0
    6.7370   -4.1680   14.9350 O   0  0  0  0  0  0  0  0  0  0  0  0
    5.8560   -3.5240   16.9310 N   0  0  0  0  0  0  0  0  0  0  0  0
    4.6350   -2.9160   16.3930 C   0  0  1  0  0  0  0  0  0  0  0  0
    3.4430   -3.2600   17.3150 C   0  0  0  0  0  0  0  0  0  0  0  0
    3.1530   -4.7490   17.3550 C   0  0  0  0  0  0  0  0  0  0  0  0
    3.4130   -5.4960   18.5130 C   0  0  0  0  0  0  0  0  0  0  0  0
    3.1590   -6.8780   18.5410 C   0  0  0  0  0  0  0  0  0  0  0  0
    2.6430   -7.5160   17.4000 C   0  0  0  0  0  0  0  0  0  0  0  0
    2.3790   -6.7710   16.2390 C   0  0  0  0  0  0  0  0  0  0  0  0
    2.6310   -5.3900   16.2200 C   0  0  0  0  0  0  0  0  0  0  0  0
    4.7860   -1.3810   16.1290 C   0  0  1  0  0  0  0  0  0  0  0  0
    4.8980   -0.6360   17.3370 O   0  0  0  0  0  0  0  0  0  0  0  0
    6.0200   -1.0120   15.2770 C   0  0  0  0  0  0  0  0  0  0  0  0
    5.8320    0.3880   14.6050 C   0  0  1  0  0  0  0  0  0  0  0  0
    7.2150    1.0420   14.2550 C   0  0  0  0  0  0  0  0  0  0  0  0
    7.5200    1.0960   12.7730 C   0  0  0  0  0  0  0  0  0  0  0  0
    7.9140   -0.0600   12.0830 C   0  0  0  0  0  0  0  0  0  0  0  0
    8.1880    0.0000   10.7050 C   0  0  0  0  0  0  0  0  0  0  0  0
    8.0640    1.2210   10.0240 C   0  0  0  0  0  0  0  0  0  0  0  0
    7.6800    2.3810   10.7120 C   0  0  0  0  0  0  0  0  0  0  0  0
    7.4060    2.3140   12.0870 C   0  0  0  0  0  0  0  0  0  0  0  0
    4.8260    0.3240   13.4270 C   0  0  0  0  0  0  0  0  0  0  0  0
    4.4820   -0.7370   12.9230 O   0  0  0  0  0  0  0  0  0  0  0  0
    4.3160    1.5300   13.0130 N   0  0  0  0  0  0  0  0  0  0  0  0
    3.4940    1.6850   11.7870 C   0  0  1  0  0  0  0  0  0  0  0  0
    2.0290    1.2130   12.0720 C   0  0  0  0  0  0  0  0  0  0  0  0
    0.9840    1.5750   10.9450 C   0  0  0  0  0  0  0  0  0  0  0  0
    0.4250    2.9810   11.0220 C   0  0  0  0  0  0  0  0  0  0  0  0
    0.3070    3.5890   12.0570 O   0  0  0  0  0  0  0  0  0  0  0  0
    0.0330    3.5100    9.8530 N   0  0  0  0  0  0  0  0  0  0  0  0
    3.6050    3.1110   11.1730 C   0  0  0  0  0  0  0  0  0  0  0  0
    3.8070    4.1250   11.8270 O   0  0  0  0  0  0  0  0  0  0  0  0
    3.4360    3.1310    9.8030 N   0  0  0  0  0  0  0  0  0  0  0  0
    3.4150    4.3300    8.9380 C   0  0  1  0  0  0  0  0  0  0  0  0
    4.8770    4.7040    8.5240 C   0  0  0  0  0  0  0  0  0  0  0  0
    5.4850    3.8010    7.4570 C   0  0  0  0  0  0  0  0  0  0  0  0
    5.8220    2.4700    7.7500 C   0  0  0  0  0  0  0  0  0  0  0  0
    6.4220    1.6510    6.7780 C   0  0  0  0  0  0  0  0  0  0  0  0
    6.6840    2.1640    5.4980 C   0  0  0  0  0  0  0  0  0  0  0  0
    6.3490    3.4940    5.1940 C   0  0  0  0  0  0  0  0  0  0  0  0
    5.7550    4.3080    6.1740 C   0  0  0  0  0  0  0  0  0  0  0  0
    2.4370    4.1220    7.7380 C   0  0  0  0  0  0  0  0  0  0  0  0
    1.7420    3.1320    7.5870 O   0  0  0  0  0  0  0  0  0  0  0  0
    2.3650    5.1340    6.8390 N   0  0  0  0  0  0  0  0  0  0  0  0
   10.1530   -4.3170   18.1240 H   0  0  0  0  0  0  0  0  0  0  0  0
    9.3720   -5.8950   18.3730 H   0  0  0  0  0  0  0  0  0  0  0  0
   10.8300   -5.7690   17.3690 H   0  0  0  0  0  0  0  0  0  0  0  0
    8.0930   -6.2370   14.9790 H   0  0  0  0  0  0  0  0  0  0  0  0
    9.6980   -6.8040   15.4610 H   0  0  0  0  0  0  0  0  0  0  0  0
    8.2980   -7.0340   16.5310 H   0  0  0  0  0  0  0  0  0  0  0  0
   10.7020   -4.4890   15.2520 H   0  0  0  0  0  0  0  0  0  0  0  0
    9.1450   -3.9430   14.6380 H   0  0  0  0  0  0  0  0  0  0  0  0
    9.8650   -3.1280   16.0350 H   0  0  0  0  0  0  0  0  0  0  0  0
    6.0480   -3.5010   17.9210 H   0  0  0  0  0  0  0  0  0  0  0  0
    4.4320   -3.3740   15.4110 H   0  0  0  0  0  0  0  0  0  0  0  0
    2.5450   -2.7230   16.9900 H   0  0  0  0  0  0  0  0  0  0  0  0
    3.6430   -2.8770   18.3210 H   0  0  0  0  0  0  0  0  0  0  0  0
    3.8200   -5.0030   19.3930 H   0  0  0  0  0  0  0  0  0  0  0  0
    3.3650   -7.4540   19.4430 H   0  0  0  0  0  0  0  0  0  0  0  0
    2.4480   -8.5890   17.4190 H   0  0  0  0  0  0  0  0  0  0  0  0
    1.9810   -7.2610   15.3550 H   0  0  0  0  0  0  0  0  0  0  0  0
    2.4210   -4.8130   15.3240 H   0  0  0  0  0  0  0  0  0  0  0  0
    3.8740   -1.0770   15.5890 H   0  0  0  0  0  0  0  0  0  0  0  0
    5.8200   -0.2780   17.3650 H   0  0  0  0  0  0  0  0  0  0  0  0
    6.1840   -1.7640   14.4990 H   0  0  0  0  0  0  0  0  0  0  0  0
    6.9160   -1.0580   15.9090 H   0  0  0  0  0  0  0  0  0  0  0  0
    5.3540    1.0520   15.3370 H   0  0  0  0  0  0  0  0  0  0  0  0
    8.0360    0.5460   14.7870 H   0  0  0  0  0  0  0  0  0  0  0  0
    7.2320    2.0620   14.6570 H   0  0  0  0  0  0  0  0  0  0  0  0
    8.0050   -1.0010   12.6170 H   0  0  0  0  0  0  0  0  0  0  0  0
    8.4930   -0.8930   10.1670 H   0  0  0  0  0  0  0  0  0  0  0  0
    8.2590    1.2750    8.9570 H   0  0  0  0  0  0  0  0  0  0  0  0
    7.5920    3.3280   10.1810 H   0  0  0  0  0  0  0  0  0  0  0  0
    7.0930    3.2100   12.6190 H   0  0  0  0  0  0  0  0  0  0  0  0
    4.6510    2.3660   13.4920 H   0  0  0  0  0  0  0  0  0  0  0  0
    3.9270    1.0340   11.0150 H   0  0  0  0  0  0  0  0  0  0  0  0
    1.6970    1.6410   13.0290 H   0  0  0  0  0  0  0  0  0  0  0  0
    2.0510    0.1240   12.2360 H   0  0  0  0  0  0  0  0  0  0  0  0
    0.1050    0.9290   11.0330 H   0  0  0  0  0  0  0  0  0  0  0  0
    1.3800    1.4070    9.9370 H   0  0  0  0  0  0  0  0  0  0  0  0
    0.3710    3.1060    8.9870 H   0  0  0  0  0  0  0  0  0  0  0  0
   -0.3670    4.4450    9.8770 H   0  0  0  0  0  0  0  0  0  0  0  0
    3.2710    2.2280    9.3580 H   0  0  0  0  0  0  0  0  0  0  0  0
    2.9790    5.1640    9.5120 H   0  0  0  0  0  0  0  0  0  0  0  0
    5.5150    4.6910    9.4180 H   0  0  0  0  0  0  0  0  0  0  0  0
    4.9100    5.7480    8.1900 H   0  0  0  0  0  0  0  0  0  0  0  0
    5.6180    2.0690    8.7390 H   0  0  0  0  0  0  0  0  0  0  0  0
    6.6820    0.6180    7.0160 H   0  0  0  0  0  0  0  0  0  0  0  0
    7.1500    1.5330    4.7400 H   0  0  0  0  0  0  0  0  0  0  0  0
    6.5560    3.8960    4.2000 H   0  0  0  0  0  0  0  0  0  0  0  0
    5.5080    5.3410    5.9320 H   0  0  0  0  0  0  0  0  0  0  0  0
    2.9480    5.9520    6.9400 H   0  0  0  0  0  0  0  0  0  0  0  0
    1.7470    5.0220    6.0480 H   0  0  0  0  0  0  0  0  0  0  0  0
  1  2  1  0  0  0  0
  1  3  1  0  0  0  0
  1  4  1  0  0  0  0
  1  5  1  0  0  0  0
  2 51  1  0  0  0  0
  2 52  1  0  0  0  0
  2 53  1  0  0  0  0
  3 54  1  0  0  0  0
  3 55  1  0  0  0  0
  3 56  1  0  0  0  0
  4 57  1  0  0  0  0
  4 58  1  0  0  0  0
  4 59  1  0  0  0  0
  5  6  1  0  0  0  0
  6  7  2  0  0  0  0
  6  8  1  0  0  0  0
  8  9  1  0  0  0  0
  8 60  1  0  0  0  0
  9 10  1  0  0  0  0
  9 17  1  0  0  0  0
  9 61  1  6  0  0  0
 10 11  1  0  0  0  0
 10 62  1  0  0  0  0
 10 63  1  0  0  0  0
 11 12  2  0  0  0  0
 11 16  1  0  0  0  0
 12 13  1  0  0  0  0
 12 64  1  0  0  0  0
 13 14  2  0  0  0  0
 13 65  1  0  0  0  0
 14 15  1  0  0  0  0
 14 66  1  0  0  0  0
 15 16  2  0  0  0  0
 15 67  1  0  0  0  0
 16 68  1  0  0  0  0
 17 18  1  0  0  0  0
 17 19  1  0  0  0  0
 17 69  1  6  0  0  0
 18 70  1  0  0  0  0
 19 20  1  0  0  0  0
 19 71  1  0  0  0  0
 19 72  1  0  0  0  0
 20 21  1  0  0  0  0
 20 28  1  0  0  0  0
 20 73  1  1  0  0  0
 21 22  1  0  0  0  0
 21 74  1  0  0  0  0
 21 75  1  0  0  0  0
 22 23  2  0  0  0  0
 22 27  1  0  0  0  0
 23 24  1  0  0  0  0
 23 76  1  0  0  0  0
 24 25  2  0  0  0  0
 24 77  1  0  0  0  0
 25 26  1  0  0  0  0
 25 78  1  0  0  0  0
 26 27  2  0  0  0  0
 26 79  1  0  0  0  0
 27 80  1  0  0  0  0
 28 29  2  0  0  0  0
 28 30  1  0  0  0  0
 30 31  1  0  0  0  0
 30 81  1  0  0  0  0
 31 32  1  0  0  0  0
 31 37  1  0  0  0  0
 31 82  1  6  0  0  0
 32 33  1  0  0  0  0
 32 83  1  0  0  0  0
 32 84  1  0  0  0  0
 33 34  1  0  0  0  0
 33 85  1  0  0  0  0
 33 86  1  0  0  0  0
 34 35  2  0  0  0  0
 34 36  1  0  0  0  0
 36 87  1  0  0  0  0
 36 88  1  0  0  0  0
 37 38  2  0  0  0  0
 37 39  1  0  0  0  0
 39 40  1  0  0  0  0
 39 89  1  0  0  0  0
 40 41  1  0  0  0  0
 40 48  1  0  0  0  0
 40 90  1  1  0  0  0
 41 42  1  0  0  0  0
 41 91  1  0  0  0  0
 41 92  1  0  0  0  0
 42 43  2  0  0  0  0
 42 47  1  0  0  0  0
 43 44  1  0  0  0  0
 43 93  1  0  0  0  0
 44 45  2  0  0  0  0
 44 94  1  0  0  0  0
 45 46  1  0  0  0  0
 45 95  1  0  0  0  0
 46 47  2  0  0  0  0
 46 96  1  0  0  0  0
 47 97  1  0  0  0  0
 48 49  2  0  0  0  0
 48 50  1  0  0  0  0
 50 98  1  0  0  0  0
 50 99  1  0  0  0  0
M  END
>  <charge>
0

>  <KI_NM>
0.021

>  <number_of_rotatable_bonds>
23

>  <lm5_entropy_jk>
43.79390162832084

>  <ligand_crystal_conformation>
A

$$$$
