1IZH
 OpenBabel11252210453D

 99101  0  0  1  0  0  0  0  0999 V2000
    9.2500   -4.6730   16.1330 C   0  0  0  0  0  0  0  0  0  0  0  0
   10.0780   -4.9570   17.3330 C   0  0  0  0  0  0  0  0  0  0  0  0
    9.2510   -5.8890   15.2820 C   0  0  0  0  0  0  0  0  0  0  0  0
    9.8160   -3.4990   15.4310 C   0  0  0  0  0  0  0  0  0  0  0  0
    7.9630   -4.3640   16.6100 O   0  0  0  0  0  0  0  0  0  0  0  0
    6.9310   -4.0090   15.7980 C   0  0  0  0  0  0  0  0  0  0  0  0
    6.9080   -3.9980   14.5720 O   0  0  0  0  0  0  0  0  0  0  0  0
    5.9500   -3.4610   16.5630 N   0  0  0  0  0  0  0  0  0  0  0  0
    4.7840   -2.7710   16.0070 C   0  0  1  0  0  0  0  0  0  0  0  0
    3.5120   -3.1510   16.8030 C   0  0  0  0  0  0  0  0  0  0  0  0
    3.2810   -4.6510   16.8510 C   0  0  0  0  0  0  0  0  0  0  0  0
    3.4900   -5.3650   18.0420 C   0  0  0  0  0  0  0  0  0  0  0  0
    3.3080   -6.7590   18.0790 C   0  0  0  0  0  0  0  0  0  0  0  0
    2.9210   -7.4430   16.9150 C   0  0  0  0  0  0  0  0  0  0  0  0
    2.7130   -6.7330   15.7210 C   0  0  0  0  0  0  0  0  0  0  0  0
    2.8850   -5.3380   15.6930 C   0  0  0  0  0  0  0  0  0  0  0  0
    5.0040   -1.2270   15.8940 C   0  0  1  0  0  0  0  0  0  0  0  0
    5.0920   -0.5790   17.1620 O   0  0  0  0  0  0  0  0  0  0  0  0
    6.2740   -0.8360   15.0970 C   0  0  0  0  0  0  0  0  0  0  0  0
    6.0460    0.5360   14.4040 C   0  0  1  0  0  0  0  0  0  0  0  0
    7.3820    1.2620   14.0250 C   0  0  0  0  0  0  0  0  0  0  0  0
    7.6360    1.3340   12.5270 C   0  0  0  0  0  0  0  0  0  0  0  0
    7.9690    0.1790   11.8050 C   0  0  0  0  0  0  0  0  0  0  0  0
    8.1710    0.2440   10.4160 C   0  0  0  0  0  0  0  0  0  0  0  0
    8.0240    1.4680    9.7440 C   0  0  0  0  0  0  0  0  0  0  0  0
    7.6900    2.6260   10.4610 C   0  0  0  0  0  0  0  0  0  0  0  0
    7.4940    2.5560   11.8500 C   0  0  0  0  0  0  0  0  0  0  0  0
    5.0510    0.4220   13.2320 C   0  0  0  0  0  0  0  0  0  0  0  0
    4.7570   -0.6490   12.7200 O   0  0  0  0  0  0  0  0  0  0  0  0
    4.5060    1.6040   12.8160 N   0  0  0  0  0  0  0  0  0  0  0  0
    3.7140    1.7300   11.5780 C   0  0  1  0  0  0  0  0  0  0  0  0
    2.3050    1.1090   11.8350 C   0  0  0  0  0  0  0  0  0  0  0  0
    1.2660    1.3830   10.6950 C   0  0  0  0  0  0  0  0  0  0  0  0
    0.6200    2.7410   10.7760 C   0  0  0  0  0  0  0  0  0  0  0  0
    0.4820    3.3600   11.8050 O   0  0  0  0  0  0  0  0  0  0  0  0
    0.1810    3.2100    9.6070 N   0  0  0  0  0  0  0  0  0  0  0  0
    3.7110    3.1880   11.0230 C   0  0  0  0  0  0  0  0  0  0  0  0
    3.8230    4.1830   11.7240 O   0  0  0  0  0  0  0  0  0  0  0  0
    3.5620    3.2640    9.6510 N   0  0  0  0  0  0  0  0  0  0  0  0
    3.4180    4.5090    8.8610 C   0  0  1  0  0  0  0  0  0  0  0  0
    4.8300    5.0470    8.4510 C   0  0  0  0  0  0  0  0  0  0  0  0
    5.4390    4.3390    7.2480 C   0  0  0  0  0  0  0  0  0  0  0  0
    5.8450    2.9980    7.3340 C   0  0  0  0  0  0  0  0  0  0  0  0
    6.4100    2.3480    6.2220 C   0  0  0  0  0  0  0  0  0  0  0  0
    6.5720    3.0440    5.0140 C   0  0  0  0  0  0  0  0  0  0  0  0
    6.1730    4.3870    4.9190 C   0  0  0  0  0  0  0  0  0  0  0  0
    5.6110    5.0300    6.0360 C   0  0  0  0  0  0  0  0  0  0  0  0
    2.4460    4.3080    7.6560 C   0  0  0  0  0  0  0  0  0  0  0  0
    1.9000    3.2530    7.3800 O   0  0  0  0  0  0  0  0  0  0  0  0
    2.2030    5.4090    6.9020 N   0  0  0  0  0  0  0  0  0  0  0  0
   10.2030   -4.0510   17.9290 H   0  0  0  0  0  0  0  0  0  0  0  0
    9.5860   -5.7160   17.9480 H   0  0  0  0  0  0  0  0  0  0  0  0
   11.0670   -5.3250   17.0520 H   0  0  0  0  0  0  0  0  0  0  0  0
    8.5180   -5.8000   14.4800 H   0  0  0  0  0  0  0  0  0  0  0  0
   10.2310   -6.0620   14.8350 H   0  0  0  0  0  0  0  0  0  0  0  0
    8.9670   -6.7640   15.8720 H   0  0  0  0  0  0  0  0  0  0  0  0
   10.8730   -3.6290   15.2110 H   0  0  0  0  0  0  0  0  0  0  0  0
    9.2920   -3.3270   14.4890 H   0  0  0  0  0  0  0  0  0  0  0  0
    9.6870   -2.6150   16.0600 H   0  0  0  0  0  0  0  0  0  0  0  0
    6.1270   -3.4110   17.5560 H   0  0  0  0  0  0  0  0  0  0  0  0
    4.6390   -3.1320   14.9760 H   0  0  0  0  0  0  0  0  0  0  0  0
    2.6390   -2.6530   16.3690 H   0  0  0  0  0  0  0  0  0  0  0  0
    3.5880   -2.7430   17.8150 H   0  0  0  0  0  0  0  0  0  0  0  0
    3.8090   -4.8360   18.9370 H   0  0  0  0  0  0  0  0  0  0  0  0
    3.4760   -7.3080   19.0070 H   0  0  0  0  0  0  0  0  0  0  0  0
    2.7850   -8.5240   16.9390 H   0  0  0  0  0  0  0  0  0  0  0  0
    2.4230   -7.2610   14.8160 H   0  0  0  0  0  0  0  0  0  0  0  0
    2.7210   -4.7900   14.7700 H   0  0  0  0  0  0  0  0  0  0  0  0
    4.1150   -0.8510   15.3630 H   0  0  0  0  0  0  0  0  0  0  0  0
    6.0380   -0.3710   17.3220 H   0  0  0  0  0  0  0  0  0  0  0  0
    6.4940   -1.5880   14.3340 H   0  0  0  0  0  0  0  0  0  0  0  0
    7.1430   -0.8320   15.7650 H   0  0  0  0  0  0  0  0  0  0  0  0
    5.5330    1.1610   15.1400 H   0  0  0  0  0  0  0  0  0  0  0  0
    8.2310    0.7990   14.5380 H   0  0  0  0  0  0  0  0  0  0  0  0
    7.3540    2.2810   14.4270 H   0  0  0  0  0  0  0  0  0  0  0  0
    8.0560   -0.7680   12.3280 H   0  0  0  0  0  0  0  0  0  0  0  0
    8.4370   -0.6490    9.8610 H   0  0  0  0  0  0  0  0  0  0  0  0
    8.1650    1.5250    8.6670 H   0  0  0  0  0  0  0  0  0  0  0  0
    7.5840    3.5770    9.9400 H   0  0  0  0  0  0  0  0  0  0  0  0
    7.2200    3.4540   12.4000 H   0  0  0  0  0  0  0  0  0  0  0  0
    4.7750    2.4380   13.3360 H   0  0  0  0  0  0  0  0  0  0  0  0
    4.2250    1.1500   10.7960 H   0  0  0  0  0  0  0  0  0  0  0  0
    1.9200    1.4910   12.7930 H   0  0  0  0  0  0  0  0  0  0  0  0
    2.4220    0.0260   11.9870 H   0  0  0  0  0  0  0  0  0  0  0  0
    0.4370    0.6690   10.7530 H   0  0  0  0  0  0  0  0  0  0  0  0
    1.7060    1.2640    9.6990 H   0  0  0  0  0  0  0  0  0  0  0  0
    0.5760    2.8520    8.7470 H   0  0  0  0  0  0  0  0  0  0  0  0
   -0.3670    4.0640    9.6020 H   0  0  0  0  0  0  0  0  0  0  0  0
    3.5010    2.3750    9.1550 H   0  0  0  0  0  0  0  0  0  0  0  0
    2.9210    5.2610    9.4950 H   0  0  0  0  0  0  0  0  0  0  0  0
    5.5090    4.9710    9.3110 H   0  0  0  0  0  0  0  0  0  0  0  0
    4.7650    6.1240    8.2560 H   0  0  0  0  0  0  0  0  0  0  0  0
    5.7170    2.4570    8.2690 H   0  0  0  0  0  0  0  0  0  0  0  0
    6.7240    1.3070    6.2970 H   0  0  0  0  0  0  0  0  0  0  0  0
    7.0080    2.5440    4.1470 H   0  0  0  0  0  0  0  0  0  0  0  0
    6.2980    4.9300    3.9800 H   0  0  0  0  0  0  0  0  0  0  0  0
    5.3020    6.0710    5.9520 H   0  0  0  0  0  0  0  0  0  0  0  0
    2.6560    6.2860    7.1150 H   0  0  0  0  0  0  0  0  0  0  0  0
    1.5940    5.3130    6.1020 H   0  0  0  0  0  0  0  0  0  0  0  0
  1  2  1  0  0  0  0
  1  3  1  0  0  0  0
  1  4  1  0  0  0  0
  1  5  1  0  0  0  0
  2 51  1  0  0  0  0
  2 52  1  0  0  0  0
  2 53  1  0  0  0  0
  3 54  1  0  0  0  0
  3 55  1  0  0  0  0
  3 56  1  0  0  0  0
  4 57  1  0  0  0  0
  4 58  1  0  0  0  0
  4 59  1  0  0  0  0
  5  6  1  0  0  0  0
  6  7  2  0  0  0  0
  6  8  1  0  0  0  0
  8  9  1  0  0  0  0
  8 60  1  0  0  0  0
  9 10  1  0  0  0  0
  9 17  1  0  0  0  0
  9 61  1  6  0  0  0
 10 11  1  0  0  0  0
 10 62  1  0  0  0  0
 10 63  1  0  0  0  0
 11 12  2  0  0  0  0
 11 16  1  0  0  0  0
 12 13  1  0  0  0  0
 12 64  1  0  0  0  0
 13 14  2  0  0  0  0
 13 65  1  0  0  0  0
 14 15  1  0  0  0  0
 14 66  1  0  0  0  0
 15 16  2  0  0  0  0
 15 67  1  0  0  0  0
 16 68  1  0  0  0  0
 17 18  1  0  0  0  0
 17 19  1  0  0  0  0
 17 69  1  6  0  0  0
 18 70  1  0  0  0  0
 19 20  1  0  0  0  0
 19 71  1  0  0  0  0
 19 72  1  0  0  0  0
 20 21  1  0  0  0  0
 20 28  1  0  0  0  0
 20 73  1  1  0  0  0
 21 22  1  0  0  0  0
 21 74  1  0  0  0  0
 21 75  1  0  0  0  0
 22 23  2  0  0  0  0
 22 27  1  0  0  0  0
 23 24  1  0  0  0  0
 23 76  1  0  0  0  0
 24 25  2  0  0  0  0
 24 77  1  0  0  0  0
 25 26  1  0  0  0  0
 25 78  1  0  0  0  0
 26 27  2  0  0  0  0
 26 79  1  0  0  0  0
 27 80  1  0  0  0  0
 28 29  2  0  0  0  0
 28 30  1  0  0  0  0
 30 31  1  0  0  0  0
 30 81  1  0  0  0  0
 31 32  1  0  0  0  0
 31 37  1  0  0  0  0
 31 82  1  6  0  0  0
 32 33  1  0  0  0  0
 32 83  1  0  0  0  0
 32 84  1  0  0  0  0
 33 34  1  0  0  0  0
 33 85  1  0  0  0  0
 33 86  1  0  0  0  0
 34 35  2  0  0  0  0
 34 36  1  0  0  0  0
 36 87  1  0  0  0  0
 36 88  1  0  0  0  0
 37 38  2  0  0  0  0
 37 39  1  0  0  0  0
 39 40  1  0  0  0  0
 39 89  1  0  0  0  0
 40 41  1  0  0  0  0
 40 48  1  0  0  0  0
 40 90  1  1  0  0  0
 41 42  1  0  0  0  0
 41 91  1  0  0  0  0
 41 92  1  0  0  0  0
 42 43  2  0  0  0  0
 42 47  1  0  0  0  0
 43 44  1  0  0  0  0
 43 93  1  0  0  0  0
 44 45  2  0  0  0  0
 44 94  1  0  0  0  0
 45 46  1  0  0  0  0
 45 95  1  0  0  0  0
 46 47  2  0  0  0  0
 46 96  1  0  0  0  0
 47 97  1  0  0  0  0
 48 49  2  0  0  0  0
 48 50  1  0  0  0  0
 50 98  1  0  0  0  0
 50 99  1  0  0  0  0
M  END
>  <charge>
0

>  <KI_NM>
0.021

>  <number_of_rotatable_bonds>
23

>  <lm5_entropy_jk>
43.79390162832084

>  <ligand_crystal_conformation>
A

$$$$
