4lbs.pdb
 OpenBabel11252210453D

 35 36  0  0  0  0  0  0  0  0999 V2000
   14.1420  -12.0100   18.5640 Cl  0  0  0  0  0  0  0  0  0  0  0  0
   17.7230   -5.8480   13.2480 C   0  0  0  0  0  0  0  0  0  0  0  0
   18.3770   -4.9400   12.3930 C   0  0  0  0  0  0  0  0  0  0  0  0
   16.3680   -6.0670   12.9460 C   0  0  0  0  0  0  0  0  0  0  0  0
   17.7740   -4.2880   11.3150 C   0  0  0  0  0  0  0  0  0  0  0  0
   15.7020   -5.4440   11.8780 C   0  0  0  0  0  0  0  0  0  0  0  0
   16.4220   -4.5480   11.0940 C   0  0  0  0  0  0  0  0  0  0  0  0
   18.4990   -6.4650   14.3960 C   0  0  0  0  0  0  0  0  0  0  0  0
   17.7320   -7.3700   15.2620 N   0  0  0  0  0  0  0  0  0  0  0  0
   17.7650   -8.7460   15.0670 C   0  0  0  0  0  0  0  0  0  0  0  0
   16.9840   -9.5920   16.0190 C   0  0  0  0  0  0  0  0  0  0  0  0
   16.5690   -9.1190   17.2970 C   0  0  0  0  0  0  0  0  0  0  0  0
   16.6320  -10.8930   15.6470 C   0  0  0  0  0  0  0  0  0  0  0  0
   15.6580   -9.8530   18.0790 C   0  0  0  0  0  0  0  0  0  0  0  0
   15.7940  -11.6750   16.4530 C   0  0  0  0  0  0  0  0  0  0  0  0
   15.2940  -11.1120   17.6230 C   0  0  0  0  0  0  0  0  0  0  0  0
   18.3930   -9.2460   14.1340 O   0  0  0  0  0  0  0  0  0  0  0  0
   17.1880   -7.9790   17.6600 O   0  0  0  0  0  0  0  0  0  0  0  0
   16.7510   -7.1750   18.7910 C   0  0  0  0  0  0  0  0  0  0  0  0
   15.7690   -6.0760   18.2430 C   0  0  0  0  0  0  0  0  0  0  0  0
   15.1420   -5.4730   19.1320 O   0  0  0  0  0  0  0  0  0  0  0  0
   15.7010   -5.9350   17.0090 O   0  5  0  0  0  0  0  0  0  0  0  0
   15.5010   -3.5780    9.7200 Br  0  0  0  0  0  0  0  0  0  0  0  0
   15.6390   -6.8800   13.6970 F   0  0  0  0  0  0  0  0  0  0  0  0
   19.6600   -4.6590   12.6270 F   0  0  0  0  0  0  0  0  0  0  0  0
   17.7290   -6.7570   19.1170 H   0  0  0  0  0  0  0  0  0  0  0  0
   18.3170   -3.5680   10.6990 H   0  0  0  0  0  0  0  0  0  0  0  0
   14.6370   -5.6210   11.6830 H   0  0  0  0  0  0  0  0  0  0  0  0
   18.8830   -5.6250   15.0460 H   0  0  0  0  0  0  0  0  0  0  0  0
   17.1650   -6.9100   16.0200 H   0  0  0  0  0  0  0  0  0  0  0  0
   16.9880  -11.3200   14.7010 H   0  0  0  0  0  0  0  0  0  0  0  0
   15.2660   -9.4760   19.0200 H   0  0  0  0  0  0  0  0  0  0  0  0
   15.5300  -12.6910   16.1530 H   0  0  0  0  0  0  0  0  0  0  0  0
   16.3100   -7.7990   19.5830 H   0  0  0  0  0  0  0  0  0  0  0  0
   19.3830   -7.0230   13.9680 H   0  0  0  0  0  0  0  0  0  0  0  0
  1 16  1  0  0  0  0
  2  3  2  0  0  0  0
  2  4  1  0  0  0  0
  2  8  1  0  0  0  0
  3  5  1  0  0  0  0
  3 25  1  0  0  0  0
  4  6  2  0  0  0  0
  4 24  1  0  0  0  0
  5  7  2  0  0  0  0
  5 27  1  0  0  0  0
  6  7  1  0  0  0  0
  6 28  1  0  0  0  0
  7 23  1  0  0  0  0
  8  9  1  0  0  0  0
  8 29  1  0  0  0  0
  8 35  1  0  0  0  0
  9 10  1  0  0  0  0
  9 30  1  0  0  0  0
 10 11  1  0  0  0  0
 10 17  2  0  0  0  0
 11 12  2  0  0  0  0
 11 13  1  0  0  0  0
 12 14  1  0  0  0  0
 12 18  1  0  0  0  0
 13 15  2  0  0  0  0
 13 31  1  0  0  0  0
 14 16  2  0  0  0  0
 14 32  1  0  0  0  0
 15 16  1  0  0  0  0
 15 33  1  0  0  0  0
 18 19  1  0  0  0  0
 19 20  1  0  0  0  0
 19 26  1  0  0  0  0
 19 34  1  0  0  0  0
 20 21  2  0  0  0  0
 20 22  1  0  0  0  0
M  CHG  1  22  -1
M  END
>  <deltaG_kcalmol>
-9.64

>  <charge>
-1

>  <lm5_entropy_jk>
25.63780735381752

>  <number_of_rotatable_bonds>
7

$$$$
