1m2q
 OpenBabel11252210453D

 27 29  0  0  1  0  0  0  0  0999 V2000
   21.6070    8.4490   19.4930 N   0  3  0  0  0  0  0  0  0  0  0  0
   25.6650    3.8900   17.5500 C   0  0  0  0  0  0  0  0  0  0  0  0
   24.8550    5.0540   17.5920 C   0  0  0  0  0  0  0  0  0  0  0  0
   24.1320    5.2530   18.7850 C   0  0  0  0  0  0  0  0  0  0  0  0
   24.1500    4.3850   19.8660 C   0  0  0  0  0  0  0  0  0  0  0  0
   24.9560    3.2360   19.7690 C   0  0  0  0  0  0  0  0  0  0  0  0
   25.7210    2.9910   18.6350 C   0  0  0  0  0  0  0  0  0  0  0  0
   23.2160    7.2960   17.9520 C   0  0  0  0  0  0  0  0  0  0  0  0
   23.9120    7.1700   16.7330 C   0  0  0  0  0  0  0  0  0  0  0  0
   24.7530    5.9910   16.4730 C   0  0  0  0  0  0  0  0  0  0  0  0
   23.7620    8.2340   15.8050 C   0  0  0  0  0  0  0  0  0  0  0  0
   22.8910    9.3130   16.0620 C   0  0  0  0  0  0  0  0  0  0  0  0
   22.1760    9.3740   17.2450 C   0  0  0  0  0  0  0  0  0  0  0  0
   22.3300    8.3670   18.2250 C   0  0  0  0  0  0  0  0  0  0  0  0
   26.4350    3.5900   16.4910 O   0  0  0  0  0  0  0  0  0  0  0  0
   20.6240    9.1720   19.5490 O   0  5  0  0  0  0  0  0  0  0  0  0
   22.0250    7.7890   20.4300 O   0  0  0  0  0  0  0  0  0  0  0  0
   23.3200    6.3830   18.9660 O   0  0  0  0  0  0  0  0  0  0  0  0
   25.3180    5.7880   15.4040 O   0  0  0  0  0  0  0  0  0  0  0  0
   24.4770    8.1240   14.6660 O   0  0  0  0  0  0  0  0  0  0  0  0
   22.7880   10.1210   15.3340 H   0  0  0  0  0  0  0  0  0  0  0  0
   21.4920   10.2130   17.4350 H   0  0  0  0  0  0  0  0  0  0  0  0
   26.3440    2.0930   18.5740 H   0  0  0  0  0  0  0  0  0  0  0  0
   23.5530    4.5660   20.7640 H   0  0  0  0  0  0  0  0  0  0  0  0
   24.9670    2.5210   20.6000 H   0  0  0  0  0  0  0  0  0  0  0  0
   26.2030    4.1360   15.6490 H   0  0  0  0  0  0  0  0  0  0  0  0
   24.4290    8.9960   14.1150 H   0  0  0  0  0  0  0  0  0  0  0  0
  2  3  2  0  0  0  0
  2  7  1  0  0  0  0
  2 15  1  0  0  0  0
  3  4  1  0  0  0  0
  3 10  1  0  0  0  0
  4  5  2  0  0  0  0
  4 18  1  0  0  0  0
  5  6  1  0  0  0  0
  5 24  1  0  0  0  0
  6  7  2  0  0  0  0
  6 25  1  0  0  0  0
  7 23  1  0  0  0  0
  8  9  2  0  0  0  0
  8 14  1  0  0  0  0
  9 10  1  0  0  0  0
  9 11  1  0  0  0  0
 10 19  2  0  0  0  0
 11 12  2  0  0  0  0
 11 20  1  0  0  0  0
 12 13  1  0  0  0  0
 12 21  1  0  0  0  0
 13 14  2  0  0  0  0
 13 22  1  0  0  0  0
 14  1  1  0  0  0  0
 15 26  1  0  0  0  0
 16  1  1  0  0  0  0
 17  1  2  0  0  0  0
 18  8  1  0  0  0  0
 20 27  1  0  0  0  0
M  CHG  2   1   1  16  -1
M  END
>  <Ki_NM>
800

>  <charge>
0

>  <number_of_rotatable_bonds>
1

>  <lm5_entropy_jk>
14.133140156892344

$$$$
