4lb4.pdb
 OpenBabel11252210453D

 35 36  0  0  0  0  0  0  0  0999 V2000
   14.1440  -11.8860   18.8120 Cl  0  0  0  0  0  0  0  0  0  0  0  0
   17.7660   -5.8770   13.2970 C   0  0  0  0  0  0  0  0  0  0  0  0
   16.4060   -6.0940   13.0320 C   0  0  0  0  0  0  0  0  0  0  0  0
   18.4200   -4.9790   12.4280 C   0  0  0  0  0  0  0  0  0  0  0  0
   15.7450   -5.4540   11.9640 C   0  0  0  0  0  0  0  0  0  0  0  0
   17.7770   -4.3530   11.3540 C   0  0  0  0  0  0  0  0  0  0  0  0
   16.4130   -4.5680   11.1150 C   0  0  0  0  0  0  0  0  0  0  0  0
   18.5650   -6.5060   14.4220 C   0  0  0  0  0  0  0  0  0  0  0  0
   17.7910   -7.3520   15.3370 N   0  0  0  0  0  0  0  0  0  0  0  0
   17.7130   -8.7340   15.1620 C   0  0  0  0  0  0  0  0  0  0  0  0
   16.9160   -9.5080   16.1530 C   0  0  0  0  0  0  0  0  0  0  0  0
   16.4600   -8.9730   17.3910 C   0  0  0  0  0  0  0  0  0  0  0  0
   16.5910  -10.8370   15.8420 C   0  0  0  0  0  0  0  0  0  0  0  0
   15.5600   -9.6960   18.2000 C   0  0  0  0  0  0  0  0  0  0  0  0
   15.7630  -11.5960   16.6730 C   0  0  0  0  0  0  0  0  0  0  0  0
   15.2440  -10.9880   17.8150 C   0  0  0  0  0  0  0  0  0  0  0  0
   18.2650   -9.2820   14.2110 O   0  0  0  0  0  0  0  0  0  0  0  0
   17.0130   -7.7870   17.7050 O   0  0  0  0  0  0  0  0  0  0  0  0
   16.6360   -7.0260   18.8910 C   0  0  0  0  0  0  0  0  0  0  0  0
   15.5450   -5.9660   18.4900 C   0  0  0  0  0  0  0  0  0  0  0  0
   14.9930   -5.4260   19.4680 O   0  0  0  0  0  0  0  0  0  0  0  0
   15.3120   -5.7840   17.2890 O   0  5  0  0  0  0  0  0  0  0  0  0
   15.4830   -3.6130    9.7730 Br  0  0  0  0  0  0  0  0  0  0  0  0
   15.6780   -6.8970   13.7940 F   0  0  0  0  0  0  0  0  0  0  0  0
   14.4540   -5.6950   11.7750 F   0  0  0  0  0  0  0  0  0  0  0  0
   18.4720   -3.5420   10.5640 F   0  0  0  0  0  0  0  0  0  0  0  0
   19.7030   -4.6960   12.6420 F   0  0  0  0  0  0  0  0  0  0  0  0
   17.6200   -6.5680   19.1340 H   0  0  0  0  0  0  0  0  0  0  0  0
   19.0250   -5.6720   15.0310 H   0  0  0  0  0  0  0  0  0  0  0  0
   17.2950   -6.8550   16.0970 H   0  0  0  0  0  0  0  0  0  0  0  0
   16.9760  -11.2980   14.9230 H   0  0  0  0  0  0  0  0  0  0  0  0
   15.1530   -9.2820   19.1190 H   0  0  0  0  0  0  0  0  0  0  0  0
   15.5260  -12.6320   16.4220 H   0  0  0  0  0  0  0  0  0  0  0  0
   16.3050   -7.6950   19.7000 H   0  0  0  0  0  0  0  0  0  0  0  0
   19.4000   -7.1200   13.9700 H   0  0  0  0  0  0  0  0  0  0  0  0
  1 16  1  0  0  0  0
  2  3  2  0  0  0  0
  2  4  1  0  0  0  0
  2  8  1  0  0  0  0
  3  5  1  0  0  0  0
  3 24  1  0  0  0  0
  4  6  2  0  0  0  0
  4 27  1  0  0  0  0
  5  7  2  0  0  0  0
  5 25  1  0  0  0  0
  6  7  1  0  0  0  0
  6 26  1  0  0  0  0
  7 23  1  0  0  0  0
  8  9  1  0  0  0  0
  8 29  1  0  0  0  0
  8 35  1  0  0  0  0
  9 10  1  0  0  0  0
  9 30  1  0  0  0  0
 10 11  1  0  0  0  0
 10 17  2  0  0  0  0
 11 12  2  0  0  0  0
 11 13  1  0  0  0  0
 12 14  1  0  0  0  0
 12 18  1  0  0  0  0
 13 15  2  0  0  0  0
 13 31  1  0  0  0  0
 14 16  2  0  0  0  0
 14 32  1  0  0  0  0
 15 16  1  0  0  0  0
 15 33  1  0  0  0  0
 18 19  1  0  0  0  0
 19 20  1  0  0  0  0
 19 28  1  0  0  0  0
 19 34  1  0  0  0  0
 20 21  2  0  0  0  0
 20 22  1  0  0  0  0
M  CHG  1  22  -1
M  END
>  <deltaG_kcalmol>
-10.46

>  <charge>
-1

>  <lm5_entropy_jk>
25.63780735381752

>  <number_of_rotatable_bonds>
7

$$$$
