1K1J
 OpenBabel11252210453D

 68 71  0  0  1  0  0  0  0  0999 V2000
    0.5170   22.1870   16.3750 C   0  0  0  0  0  0  0  0  0  0  0  0
    0.0100   21.4950   15.2970 C   0  0  0  0  0  0  0  0  0  0  0  0
    0.8940   20.9390   14.3260 C   0  0  0  0  0  0  0  0  0  0  0  0
    2.2540   21.0750   14.4620 C   0  0  0  0  0  0  0  0  0  0  0  0
    4.2210   21.9210   15.7560 C   0  0  0  0  0  0  0  0  0  0  0  0
    4.7170   22.6260   16.8220 C   0  0  0  0  0  0  0  0  0  0  0  0
    3.8320   23.2290   17.7670 C   0  0  0  0  0  0  0  0  0  0  0  0
    2.4750   23.0980   17.6290 C   0  0  0  0  0  0  0  0  0  0  0  0
    1.9270   22.3560   16.5300 C   0  0  0  0  0  0  0  0  0  0  0  0
    2.8080   21.7760   15.5770 C   0  0  0  0  0  0  0  0  0  0  0  0
   -1.6900   21.2000   15.1380 S   0  0  0  0  0  0  0  0  0  0  0  0
   -2.0970   13.8420   14.9700 C   0  0  0  0  0  0  0  0  0  0  0  0
   -1.8500   19.6020   15.7690 N   0  0  0  0  0  0  0  0  0  0  0  0
   -1.6250   19.2660   17.1760 C   0  0  1  0  0  0  0  0  0  0  0  0
   -2.1160   21.0680   13.7440 O   0  0  0  0  0  0  0  0  0  0  0  0
   -2.4640   22.1440   15.9420 O   0  0  0  0  0  0  0  0  0  0  0  0
   -2.5560   18.0980   17.6090 C   0  0  0  0  0  0  0  0  0  0  0  0
   -0.1410   18.8660   17.4250 C   0  0  0  0  0  0  0  0  0  0  0  0
    0.5310   18.3440   16.5400 O   0  0  0  0  0  0  0  0  0  0  0  0
    1.9700   20.4750   20.7180 C   0  0  1  0  0  0  0  0  0  0  0  0
   -1.6920   12.5430   14.8520 N   0  3  0  0  0  0  0  0  0  0  0  0
    2.7690   21.6710   21.2080 C   0  0  0  0  0  0  0  0  0  0  0  0
    2.4040   22.8100   21.3920 O   0  0  0  0  0  0  0  0  0  0  0  0
   -2.7510   14.3580   13.8900 N   0  0  0  0  0  0  0  0  0  0  0  0
    4.0520   21.2670   21.4920 O   0  0  0  0  0  0  0  0  0  0  0  0
   -1.7740   14.6440   16.1690 C   0  0  0  0  0  0  0  0  0  0  0  0
   -1.0350   14.0790   17.2290 C   0  0  0  0  0  0  0  0  0  0  0  0
   -0.7370   14.8400   18.3590 C   0  0  0  0  0  0  0  0  0  0  0  0
   -1.2100   16.1480   18.4750 C   0  0  0  0  0  0  0  0  0  0  0  0
   -1.9820   16.7190   17.4480 C   0  0  0  0  0  0  0  0  0  0  0  0
   -2.2350   15.9690   16.2940 C   0  0  0  0  0  0  0  0  0  0  0  0
   -0.2680   19.6900   19.8530 C   0  0  0  0  0  0  0  0  0  0  0  0
    0.5390   20.9030   20.3530 C   0  0  0  0  0  0  0  0  0  0  0  0
    2.6520   19.8190   19.5060 C   0  0  0  0  0  0  0  0  0  0  0  0
    1.8190   18.6450   18.9660 C   0  0  0  0  0  0  0  0  0  0  0  0
    0.4010   19.0340   18.6960 N   0  0  0  0  0  0  0  0  0  0  0  0
    5.0070   22.2740   21.9320 C   0  0  0  0  0  0  0  0  0  0  0  0
    4.6500   22.7440   22.8720 H   0  0  0  0  0  0  0  0  0  0  0  0
   -0.1370   22.6270   17.1420 H   0  0  0  0  0  0  0  0  0  0  0  0
    0.4870   20.4010   13.4640 H   0  0  0  0  0  0  0  0  0  0  0  0
    2.9380   20.6540   13.7170 H   0  0  0  0  0  0  0  0  0  0  0  0
    4.8950   21.4550   15.0290 H   0  0  0  0  0  0  0  0  0  0  0  0
    5.7970   22.7410   16.9680 H   0  0  0  0  0  0  0  0  0  0  0  0
    4.2650   23.7990   18.5960 H   0  0  0  0  0  0  0  0  0  0  0  0
    1.7890   23.5610   18.3450 H   0  0  0  0  0  0  0  0  0  0  0  0
   -1.7100   18.7870   15.1290 H   0  0  0  0  0  0  0  0  0  0  0  0
   -1.9060   20.1690   17.7940 H   0  0  0  0  0  0  0  0  0  0  0  0
   -3.5080   18.1830   17.0090 H   0  0  0  0  0  0  0  0  0  0  0  0
    1.9250   19.7260   21.5540 H   0  0  0  0  0  0  0  0  0  0  0  0
   -1.2040   12.0330   15.6150 H   0  0  0  0  0  0  0  0  0  0  0  0
   -3.1090   13.7050   13.1460 H   0  0  0  0  0  0  0  0  0  0  0  0
   -0.7030   13.0410   17.2110 H   0  0  0  0  0  0  0  0  0  0  0  0
   -0.1420   14.4040   19.1690 H   0  0  0  0  0  0  0  0  0  0  0  0
   -0.9790   16.7300   19.3740 H   0  0  0  0  0  0  0  0  0  0  0  0
   -2.8050   16.4490   15.4990 H   0  0  0  0  0  0  0  0  0  0  0  0
   -1.3040   20.0270   19.5990 H   0  0  0  0  0  0  0  0  0  0  0  0
    0.5650   21.6840   19.5550 H   0  0  0  0  0  0  0  0  0  0  0  0
    3.6570   19.4320   19.8090 H   0  0  0  0  0  0  0  0  0  0  0  0
    1.8040   17.8020   19.7070 H   0  0  0  0  0  0  0  0  0  0  0  0
    5.1490   23.0180   21.1190 H   0  0  0  0  0  0  0  0  0  0  0  0
   -2.8450   18.2480   18.6820 H   0  0  0  0  0  0  0  0  0  0  0  0
   -2.1050   11.9190   14.1200 H   0  0  0  0  0  0  0  0  0  0  0  0
   -3.1220   15.3290   13.8690 H   0  0  0  0  0  0  0  0  0  0  0  0
   -0.3440   18.9230   20.6700 H   0  0  0  0  0  0  0  0  0  0  0  0
    0.0180   21.3310   21.2460 H   0  0  0  0  0  0  0  0  0  0  0  0
    2.7850   20.5770   18.6960 H   0  0  0  0  0  0  0  0  0  0  0  0
    2.2760   18.2890   18.0100 H   0  0  0  0  0  0  0  0  0  0  0  0
    5.9220   21.6600   22.0940 H   0  0  0  0  0  0  0  0  0  0  0  0
  1  2  2  0  0  0  0
  1  9  1  0  0  0  0
  1 39  1  0  0  0  0
  2  3  1  0  0  0  0
  2 11  1  0  0  0  0
  3  4  2  0  0  0  0
  3 40  1  0  0  0  0
  4 10  1  0  0  0  0
  4 41  1  0  0  0  0
  5  6  2  0  0  0  0
  5 10  1  0  0  0  0
  5 42  1  0  0  0  0
  6  7  1  0  0  0  0
  6 43  1  0  0  0  0
  7  8  2  0  0  0  0
  7 44  1  0  0  0  0
  8  9  1  0  0  0  0
  8 45  1  0  0  0  0
  9 10  2  0  0  0  0
 11 13  1  0  0  0  0
 11 15  2  0  0  0  0
 11 16  2  0  0  0  0
 12 21  2  0  0  0  0
 12 24  1  0  0  0  0
 12 26  1  0  0  0  0
 13 14  1  0  0  0  0
 13 46  1  0  0  0  0
 14 17  1  0  0  0  0
 14 18  1  0  0  0  0
 14 47  1  1  0  0  0
 17 30  1  0  0  0  0
 17 48  1  0  0  0  0
 17 61  1  0  0  0  0
 18 19  2  0  0  0  0
 18 36  1  0  0  0  0
 20 22  1  0  0  0  0
 20 33  1  0  0  0  0
 20 34  1  0  0  0  0
 20 49  1  1  0  0  0
 21 50  1  0  0  0  0
 21 62  1  0  0  0  0
 22 23  2  0  0  0  0
 22 25  1  0  0  0  0
 24 51  1  0  0  0  0
 24 63  1  0  0  0  0
 25 37  1  0  0  0  0
 26 27  2  0  0  0  0
 26 31  1  0  0  0  0
 27 28  1  0  0  0  0
 27 52  1  0  0  0  0
 28 29  2  0  0  0  0
 28 53  1  0  0  0  0
 29 30  1  0  0  0  0
 29 54  1  0  0  0  0
 30 31  2  0  0  0  0
 31 55  1  0  0  0  0
 32 33  1  0  0  0  0
 32 36  1  0  0  0  0
 32 56  1  0  0  0  0
 32 64  1  0  0  0  0
 33 57  1  0  0  0  0
 33 65  1  0  0  0  0
 34 35  1  0  0  0  0
 34 58  1  0  0  0  0
 34 66  1  0  0  0  0
 35 36  1  0  0  0  0
 35 59  1  0  0  0  0
 35 67  1  0  0  0  0
 37 38  1  0  0  0  0
 37 60  1  0  0  0  0
 37 68  1  0  0  0  0
M  CHG  1  21   1
M  END
>  <deltaG_kcalmol>
-10.31

>  <charge>
1

>  <lm5_entropy_jk>
31.910199423359543

>  <number_of_rotatable_bonds>
10

$$$$
