3R8V
 OpenBabel11252210453D

 33 34  0  0  1  0  0  0  0  0999 V2000
   65.9760  153.9760  -49.9180 N   0  0  0  0  0  0  0  0  0  0  0  0
   67.8220  153.1940  -51.0360 N   0  0  0  0  0  0  0  0  0  0  0  0
   64.1160  154.4250  -48.6240 N   0  0  0  0  0  0  0  0  0  0  0  0
   68.2760  151.1230  -43.6620 N   0  3  0  0  0  0  0  0  0  0  0  0
   67.0880  153.1850  -49.9220 C   0  0  0  0  0  0  0  0  0  0  0  0
   67.2990  152.4070  -48.8230 C   0  0  0  0  0  0  0  0  0  0  0  0
   68.4140  151.4600  -48.7010 C   0  0  0  0  0  0  0  0  0  0  0  0
   68.5530  150.6700  -47.4290 C   0  0  0  0  0  0  0  0  0  0  0  0
   68.3730  151.2620  -46.1610 C   0  0  0  0  0  0  0  0  0  0  0  0
   68.4980  150.4900  -44.9870 C   0  0  0  0  0  0  0  0  0  0  0  0
   68.8290  149.1230  -45.0770 C   0  0  0  0  0  0  0  0  0  0  0  0
   69.0670  148.5510  -46.3370 C   0  0  0  0  0  0  0  0  0  0  0  0
   68.9270  149.3150  -47.5080 C   0  0  0  0  0  0  0  0  0  0  0  0
   65.3090  153.7860  -48.8000 C   0  0  0  0  0  0  0  0  0  0  0  0
   63.4780  154.7780  -47.3340 C   0  0  0  0  0  0  0  0  0  0  0  0
   62.7430  153.6090  -46.7330 C   0  0  0  0  0  0  0  0  0  0  0  0
   62.0870  153.7160  -45.5740 C   0  0  0  0  0  0  0  0  0  0  0  0
   69.2090  151.2930  -49.6100 O   0  0  0  0  0  0  0  0  0  0  0  0
   68.5360  152.3160  -43.5540 O   0  5  0  0  0  0  0  0  0  0  0  0
   67.9130  150.4120  -42.7280 O   0  0  0  0  0  0  0  0  0  0  0  0
   65.9630  152.5880  -47.7050 S   0  0  0  0  0  0  0  0  0  0  0  0
   67.3890  153.5650  -51.8670 H   0  0  0  0  0  0  0  0  0  0  0  0
   68.5270  152.4680  -51.0800 H   0  0  0  0  0  0  0  0  0  0  0  0
   68.1240  152.3180  -46.0840 H   0  0  0  0  0  0  0  0  0  0  0  0
   68.9150  148.5110  -44.1770 H   0  0  0  0  0  0  0  0  0  0  0  0
   69.3530  147.5020  -46.4040 H   0  0  0  0  0  0  0  0  0  0  0  0
   69.1030  148.8570  -48.4820 H   0  0  0  0  0  0  0  0  0  0  0  0
   63.7980  154.9350  -49.4470 H   0  0  0  0  0  0  0  0  0  0  0  0
   62.7650  155.6050  -47.4880 H   0  0  0  0  0  0  0  0  0  0  0  0
   64.2190  155.1580  -46.6220 H   0  0  0  0  0  0  0  0  0  0  0  0
   61.5730  152.8680  -45.1260 H   0  0  0  0  0  0  0  0  0  0  0  0
   62.0570  154.6510  -45.0130 H   0  0  0  0  0  0  0  0  0  0  0  0
   62.7780  152.6640  -47.2820 H   0  0  0  0  0  0  0  0  0  0  0  0
  1  5  1  0  0  0  0
  1 14  2  0  0  0  0
  2  5  1  0  0  0  0
  2 22  1  0  0  0  0
  2 23  1  0  0  0  0
  3 14  1  0  0  0  0
  3 15  1  0  0  0  0
  3 28  1  0  0  0  0
  4 10  1  0  0  0  0
  4 19  1  0  0  0  0
  4 20  2  0  0  0  0
  5  6  2  0  0  0  0
  6 21  1  0  0  0  0
  7  6  1  0  0  0  0
  7  8  1  0  0  0  0
  7 18  2  0  0  0  0
  8  9  2  0  0  0  0
  8 13  1  0  0  0  0
  9 10  1  0  0  0  0
  9 24  1  0  0  0  0
 10 11  2  0  0  0  0
 11 12  1  0  0  0  0
 11 25  1  0  0  0  0
 12 13  2  0  0  0  0
 12 26  1  0  0  0  0
 13 27  1  0  0  0  0
 14 21  1  0  0  0  0
 15 16  1  0  0  0  0
 15 29  1  0  0  0  0
 15 30  1  0  0  0  0
 16 17  2  0  0  0  0
 16 33  1  0  0  0  0
 17 31  1  0  0  0  0
 17 32  1  0  0  0  0
M  CHG  2   4   1  19  -1
M  END
>  <lm5_entropy_jk>
33.50945403317048

>  <number_of_rotatable_bonds>
6

>  <IC50_NM>
2900

>  <charge>
0

$$$$
