3R8V
 OpenBabel11252210453D

 33 34  0  0  1  0  0  0  0  0999 V2000
   65.7210  154.4920  -50.1660 N   0  0  0  0  0  0  0  0  0  0  0  0
   67.3560  153.4990  -51.4510 N   0  0  0  0  0  0  0  0  0  0  0  0
   64.1830  155.2420  -48.6030 N   0  0  0  0  0  0  0  0  0  0  0  0
   68.0060  150.9500  -44.0690 N   0  3  0  0  0  0  0  0  0  0  0  0
   66.7560  153.6030  -50.2610 C   0  0  0  0  0  0  0  0  0  0  0  0
   67.0470  152.8650  -49.1480 C   0  0  0  0  0  0  0  0  0  0  0  0
   68.1400  151.8840  -49.0850 C   0  0  0  0  0  0  0  0  0  0  0  0
   68.2700  150.9750  -47.8820 C   0  0  0  0  0  0  0  0  0  0  0  0
   68.0660  151.4050  -46.5480 C   0  0  0  0  0  0  0  0  0  0  0  0
   68.2040  150.4990  -45.4700 C   0  0  0  0  0  0  0  0  0  0  0  0
   68.5620  149.1640  -45.7180 C   0  0  0  0  0  0  0  0  0  0  0  0
   68.8170  148.7550  -47.0300 C   0  0  0  0  0  0  0  0  0  0  0  0
   68.6730  149.6450  -48.1050 C   0  0  0  0  0  0  0  0  0  0  0  0
   65.1900  154.3960  -48.9650 C   0  0  0  0  0  0  0  0  0  0  0  0
   63.5540  155.3230  -47.2650 C   0  0  0  0  0  0  0  0  0  0  0  0
   62.7120  154.1010  -47.0000 C   0  0  0  0  0  0  0  0  0  0  0  0
   62.4520  153.6730  -45.7620 C   0  0  0  0  0  0  0  0  0  0  0  0
   68.9280  151.7680  -50.0090 O   0  0  0  0  0  0  0  0  0  0  0  0
   68.3840  152.0770  -43.7810 O   0  5  0  0  0  0  0  0  0  0  0  0
   67.6590  150.1160  -43.2350 O   0  0  0  0  0  0  0  0  0  0  0  0
   65.7940  153.1020  -47.9580 S   0  0  0  0  0  0  0  0  0  0  0  0
   67.1150  154.1380  -52.2020 H   0  0  0  0  0  0  0  0  0  0  0  0
   68.1760  152.9100  -51.4730 H   0  0  0  0  0  0  0  0  0  0  0  0
   67.8170  152.4410  -46.3410 H   0  0  0  0  0  0  0  0  0  0  0  0
   68.6720  148.4510  -44.8980 H   0  0  0  0  0  0  0  0  0  0  0  0
   69.1360  147.7350  -47.2020 H   0  0  0  0  0  0  0  0  0  0  0  0
   68.8800  149.3020  -49.1180 H   0  0  0  0  0  0  0  0  0  0  0  0
   63.6550  155.6020  -49.3970 H   0  0  0  0  0  0  0  0  0  0  0  0
   62.9170  156.2190  -47.1970 H   0  0  0  0  0  0  0  0  0  0  0  0
   64.3200  155.4280  -46.4870 H   0  0  0  0  0  0  0  0  0  0  0  0
   61.8590  152.7810  -45.5770 H   0  0  0  0  0  0  0  0  0  0  0  0
   62.8350  154.1880  -44.8800 H   0  0  0  0  0  0  0  0  0  0  0  0
   62.3260  153.5770  -47.8800 H   0  0  0  0  0  0  0  0  0  0  0  0
  1  5  1  0  0  0  0
  1 14  2  0  0  0  0
  2  5  1  0  0  0  0
  2 22  1  0  0  0  0
  2 23  1  0  0  0  0
  3 14  1  0  0  0  0
  3 15  1  0  0  0  0
  3 28  1  0  0  0  0
  4 10  1  0  0  0  0
  4 19  1  0  0  0  0
  4 20  2  0  0  0  0
  5  6  2  0  0  0  0
  6 21  1  0  0  0  0
  7  6  1  0  0  0  0
  7  8  1  0  0  0  0
  7 18  2  0  0  0  0
  8  9  2  0  0  0  0
  8 13  1  0  0  0  0
  9 10  1  0  0  0  0
  9 24  1  0  0  0  0
 10 11  2  0  0  0  0
 11 12  1  0  0  0  0
 11 25  1  0  0  0  0
 12 13  2  0  0  0  0
 12 26  1  0  0  0  0
 13 27  1  0  0  0  0
 14 21  1  0  0  0  0
 15 16  1  0  0  0  0
 15 29  1  0  0  0  0
 15 30  1  0  0  0  0
 16 17  2  0  0  0  0
 16 33  1  0  0  0  0
 17 31  1  0  0  0  0
 17 32  1  0  0  0  0
M  CHG  2   4   1  19  -1
M  END
>  <lm5_entropy_jk>
33.50945403317048

>  <number_of_rotatable_bonds>
6

>  <IC50_NM>
2900

>  <charge>
0

$$$$
