2ZHD
 OpenBabel11252210453D

 64 66  0  0  1  0  0  0  0  0999 V2000
    2.5850   20.8210   18.5710 N   0  0  0  0  0  0  0  0  0  0  0  0
   -1.6730   12.4620   14.9540 N   0  3  0  0  0  0  0  0  0  0  0  0
   -2.6850   14.3530   14.0130 N   0  0  0  0  0  0  0  0  0  0  0  0
    3.2960   22.5260   15.2680 N   0  3  0  0  0  0  0  0  0  0  0  0
    0.6600   17.7040   19.4860 N   0  0  0  0  0  0  0  0  0  0  0  0
    2.3470   19.4660   19.1310 C   0  0  1  0  0  0  0  0  0  0  0  0
    2.9360   19.4950   20.5680 C   0  0  0  0  0  0  0  0  0  0  0  0
    3.0130   20.9920   20.9440 C   0  0  0  0  0  0  0  0  0  0  0  0
    3.1470   21.7280   19.6010 C   0  0  0  0  0  0  0  0  0  0  0  0
    2.9500   22.4630   16.7860 C   0  0  0  0  0  0  0  0  0  0  0  0
    0.8610   19.0160   19.0940 C   0  0  0  0  0  0  0  0  0  0  0  0
   -2.0990   13.7530   15.0860 C   0  0  0  0  0  0  0  0  0  0  0  0
    2.4750   21.1020   17.2140 C   0  0  0  0  0  0  0  0  0  0  0  0
   -0.6800   17.0820   19.6700 C   0  0  0  0  0  0  0  0  0  0  0  0
   -1.0520   16.1890   18.5100 C   0  0  0  0  0  0  0  0  0  0  0  0
   -0.9620   14.7930   18.5970 C   0  0  0  0  0  0  0  0  0  0  0  0
   -1.3010   13.9860   17.4920 C   0  0  0  0  0  0  0  0  0  0  0  0
   -1.7280   14.5770   16.2770 C   0  0  0  0  0  0  0  0  0  0  0  0
   -1.8130   15.9900   16.2170 C   0  0  0  0  0  0  0  0  0  0  0  0
   -1.4760   16.7780   17.3210 C   0  0  0  0  0  0  0  0  0  0  0  0
    6.9150   21.4790   13.5420 C   0  0  0  0  0  0  0  0  0  0  0  0
    6.1240   21.3930   14.8700 C   0  0  0  0  0  0  0  0  0  0  0  0
    5.8210   22.7890   15.5040 C   0  0  0  0  0  0  0  0  0  0  0  0
    4.4800   23.4390   15.0510 C   0  0  0  0  0  0  0  0  0  0  0  0
    4.5540   23.9560   13.5930 C   0  0  0  0  0  0  0  0  0  0  0  0
    5.0270   22.9220   12.5290 C   0  0  0  0  0  0  0  0  0  0  0  0
    6.5530   22.6830   12.6380 C   0  0  0  0  0  0  0  0  0  0  0  0
   -0.0740   19.7450   18.7960 O   0  0  0  0  0  0  0  0  0  0  0  0
    2.0820   20.2930   16.3970 O   0  0  0  0  0  0  0  0  0  0  0  0
    2.8670   18.7270   18.5110 H   0  0  0  0  0  0  0  0  0  0  0  0
    3.9360   19.0390   20.5800 H   0  0  0  0  0  0  0  0  0  0  0  0
    2.3040   18.9430   21.2790 H   0  0  0  0  0  0  0  0  0  0  0  0
    2.0810   21.3070   21.4410 H   0  0  0  0  0  0  0  0  0  0  0  0
    3.8360   21.2290   21.6380 H   0  0  0  0  0  0  0  0  0  0  0  0
    2.6110   22.6920   19.6230 H   0  0  0  0  0  0  0  0  0  0  0  0
    4.2100   21.9250   19.3920 H   0  0  0  0  0  0  0  0  0  0  0  0
    2.1570   23.1730   17.0360 H   0  0  0  0  0  0  0  0  0  0  0  0
    3.8330   22.6860   17.3790 H   0  0  0  0  0  0  0  0  0  0  0  0
    3.5330   21.5940   14.8910 H   0  0  0  0  0  0  0  0  0  0  0  0
    2.4910   22.8390   14.6960 H   0  0  0  0  0  0  0  0  0  0  0  0
    1.4850   17.1480   19.6930 H   0  0  0  0  0  0  0  0  0  0  0  0
   -0.7020   16.4970   20.6000 H   0  0  0  0  0  0  0  0  0  0  0  0
   -1.4490   17.8610   19.7790 H   0  0  0  0  0  0  0  0  0  0  0  0
   -0.6260   14.3400   19.5310 H   0  0  0  0  0  0  0  0  0  0  0  0
   -1.2330   12.9050   17.5990 H   0  0  0  0  0  0  0  0  0  0  0  0
   -2.1250   16.5110   15.3180 H   0  0  0  0  0  0  0  0  0  0  0  0
   -1.5360   17.8640   17.2530 H   0  0  0  0  0  0  0  0  0  0  0  0
    7.9860   21.5440   13.7750 H   0  0  0  0  0  0  0  0  0  0  0  0
    6.7950   20.5360   12.9880 H   0  0  0  0  0  0  0  0  0  0  0  0
    6.7230   20.7970   15.5720 H   0  0  0  0  0  0  0  0  0  0  0  0
    5.2120   20.8030   14.7170 H   0  0  0  0  0  0  0  0  0  0  0  0
    6.6490   23.4810   15.2910 H   0  0  0  0  0  0  0  0  0  0  0  0
    5.8340   22.7000   16.5980 H   0  0  0  0  0  0  0  0  0  0  0  0
    4.3020   24.3230   15.6810 H   0  0  0  0  0  0  0  0  0  0  0  0
    3.5740   24.3640   13.3010 H   0  0  0  0  0  0  0  0  0  0  0  0
    5.2170   24.8340   13.5680 H   0  0  0  0  0  0  0  0  0  0  0  0
    4.4720   21.9750   12.6060 H   0  0  0  0  0  0  0  0  0  0  0  0
    4.7980   23.3200   11.5280 H   0  0  0  0  0  0  0  0  0  0  0  0
    7.0480   23.5870   13.0200 H   0  0  0  0  0  0  0  0  0  0  0  0
    7.0010   22.5460   11.6450 H   0  0  0  0  0  0  0  0  0  0  0  0
   -3.1720   15.2300   14.1680 H   0  0  0  0  0  0  0  0  0  0  0  0
   -3.1150   13.7180   13.3360 H   0  0  0  0  0  0  0  0  0  0  0  0
   -1.2160   11.9970   15.7370 H   0  0  0  0  0  0  0  0  0  0  0  0
   -2.1650   11.8650   14.2880 H   0  0  0  0  0  0  0  0  0  0  0  0
  1  6  1  0  0  0  0
  1  9  1  0  0  0  0
  1 13  1  0  0  0  0
  2 12  2  0  0  0  0
  2 63  1  0  0  0  0
  2 64  1  0  0  0  0
  3 12  1  0  0  0  0
  3 61  1  0  0  0  0
  3 62  1  0  0  0  0
  4 10  1  0  0  0  0
  4 24  1  0  0  0  0
  4 39  1  0  0  0  0
  4 40  1  0  0  0  0
  5 11  1  0  0  0  0
  5 14  1  0  0  0  0
  5 41  1  0  0  0  0
  6  7  1  0  0  0  0
  6 11  1  0  0  0  0
  6 30  1  6  0  0  0
  7  8  1  0  0  0  0
  7 31  1  0  0  0  0
  7 32  1  0  0  0  0
  8  9  1  0  0  0  0
  8 33  1  0  0  0  0
  8 34  1  0  0  0  0
  9 35  1  0  0  0  0
  9 36  1  0  0  0  0
 10 13  1  0  0  0  0
 10 37  1  0  0  0  0
 10 38  1  0  0  0  0
 11 28  2  0  0  0  0
 12 18  1  0  0  0  0
 13 29  2  0  0  0  0
 14 15  1  0  0  0  0
 14 42  1  0  0  0  0
 14 43  1  0  0  0  0
 15 16  2  0  0  0  0
 15 20  1  0  0  0  0
 16 17  1  0  0  0  0
 16 44  1  0  0  0  0
 17 18  2  0  0  0  0
 17 45  1  0  0  0  0
 18 19  1  0  0  0  0
 19 20  2  0  0  0  0
 19 46  1  0  0  0  0
 20 47  1  0  0  0  0
 21 22  1  0  0  0  0
 21 27  1  0  0  0  0
 21 48  1  0  0  0  0
 21 49  1  0  0  0  0
 22 23  1  0  0  0  0
 22 50  1  0  0  0  0
 22 51  1  0  0  0  0
 23 24  1  0  0  0  0
 23 52  1  0  0  0  0
 23 53  1  0  0  0  0
 24 25  1  0  0  0  0
 24 54  1  0  0  0  0
 25 26  1  0  0  0  0
 25 55  1  0  0  0  0
 25 56  1  0  0  0  0
 26 27  1  0  0  0  0
 26 57  1  0  0  0  0
 26 58  1  0  0  0  0
 27 59  1  0  0  0  0
 27 60  1  0  0  0  0
M  CHG  2   2   1   4   1
M  END
>  <number_of_rotatable_bonds>
9

>  <lm5_entropy_jk>
23.69757746385818

>  <deltaG_kcalmol>
-8.93

>  <charge>
2

$$$$
