3OXC
 OpenBabel11252210453D

100104  0  0  1  0  0  0  0  0999 V2000
    6.2060   -6.5080   17.1000 N   0  0  0  0  0  0  0  0  0  0  0  0
    6.9290   -5.2260   17.1350 C   0  0  1  0  0  0  0  0  0  0  0  0
    5.0680   -2.0720   15.9420 C   0  0  2  0  0  0  0  0  0  0  0  0
    5.9110   -7.1710   18.3070 C   0  0  0  0  0  0  0  0  0  0  0  0
    6.3580   -6.7940   19.3740 O   0  0  0  0  0  0  0  0  0  0  0  0
    8.4190   -5.3240   16.7740 C   0  0  0  0  0  0  0  0  0  0  0  0
    3.5750   -2.1680   16.3140 C   0  0  0  0  0  0  0  0  0  0  0  0
    9.2030   -5.9710   17.9120 C   0  0  0  0  0  0  0  0  0  0  0  0
    3.0920   -3.5930   16.2800 C   0  0  0  0  0  0  0  0  0  0  0  0
    1.4510    0.4480   12.0100 C   0  0  0  0  0  0  0  0  0  0  0  0
    2.6810   -4.1940   15.0820 C   0  0  0  0  0  0  0  0  0  0  0  0
    3.0680   -4.3320   17.4730 C   0  0  0  0  0  0  0  0  0  0  0  0
    9.7420   -7.2210   17.6330 N   0  0  0  0  0  0  0  0  0  0  0  0
    9.3600   -5.4440   19.0020 O   0  0  0  0  0  0  0  0  0  0  0  0
    2.2680   -5.5300   15.0830 C   0  0  0  0  0  0  0  0  0  0  0  0
    2.6530   -5.6630   17.4650 C   0  0  0  0  0  0  0  0  0  0  0  0
    2.2700   -6.2730   16.2670 C   0  0  0  0  0  0  0  0  0  0  0  0
    5.2890    0.4680   15.3450 C   0  0  0  0  0  0  0  0  0  0  0  0
    6.2360   -4.2830   16.1140 C   0  0  0  0  0  0  0  0  0  0  0  0
    5.0140   -9.1700   17.1960 N   0  0  0  0  0  0  0  0  0  0  0  0
    6.0730   -4.4680   14.9230 O   0  0  0  0  0  0  0  0  0  0  0  0
    4.8930   -8.2880   18.1850 C   0  0  0  0  0  0  0  0  0  0  0  0
    5.8820   -3.0510   16.7010 N   0  0  0  0  0  0  0  0  0  0  0  0
    5.2060   -0.3440   17.5770 O   0  0  0  0  0  0  0  0  0  0  0  0
    3.8280   -8.3120   19.1430 C   0  0  0  0  0  0  0  0  0  0  0  0
    7.3200    1.8450   11.7350 C   0  0  2  0  0  0  0  0  0  0  0  0
    2.8340    1.0060   12.3130 N   0  0  0  0  0  0  0  0  0  0  0  0
    3.9580   -0.9540   12.8980 O   0  0  0  0  0  0  0  0  0  0  0  0
    2.8470   -9.2640   19.0100 C   0  0  0  0  0  0  0  0  0  0  0  0
    2.9170  -10.2100   17.9410 C   0  0  0  0  0  0  0  0  0  0  0  0
    1.9220  -11.2130   17.7310 C   0  0  0  0  0  0  0  0  0  0  0  0
    2.0440  -12.0960   16.6890 C   0  0  0  0  0  0  0  0  0  0  0  0
    3.1610  -12.0280   15.8020 C   0  0  0  0  0  0  0  0  0  0  0  0
    8.1460    1.0860   12.8010 C   0  0  2  0  0  0  0  0  0  0  0  0
    4.1390  -11.0810   15.9740 C   0  0  0  0  0  0  0  0  0  0  0  0
    4.0320  -10.1420   17.0520 C   0  0  0  0  0  0  0  0  0  0  0  0
    5.7010   -0.6940   16.2870 C   0  0  1  0  0  0  0  0  0  0  0  0
    0.5070    1.6520   11.9030 C   0  0  0  0  0  0  0  0  0  0  0  0
    6.0310    0.4410   14.0120 N   0  3  1  0  0  0  0  0  0  0  0  0
    5.1870    1.1160   12.9300 C   0  0  1  0  0  0  0  0  0  0  0  0
    1.0810   -0.4540   13.1910 C   0  0  0  0  0  0  0  0  0  0  0  0
    5.9220    1.2200   11.5900 C   0  0  0  0  0  0  0  0  0  0  0  0
    1.5310   -0.2920   10.6710 C   0  0  0  0  0  0  0  0  0  0  0  0
    8.0350    1.8460   10.3720 C   0  0  0  0  0  0  0  0  0  0  0  0
    8.4690    0.4410    9.9380 C   0  0  0  0  0  0  0  0  0  0  0  0
    9.2950   -0.2600   11.0240 C   0  0  0  0  0  0  0  0  0  0  0  0
    8.4990   -0.3400   12.3380 C   0  0  0  0  0  0  0  0  0  0  0  0
    7.3840    1.1370   14.1380 C   0  0  0  0  0  0  0  0  0  0  0  0
    3.9130    0.2550   12.6960 C   0  0  0  0  0  0  0  0  0  0  0  0
    6.2810   -7.0340   16.2060 H   0  0  0  0  0  0  0  0  0  0  0  0
    6.8240   -4.7870   18.1760 H   0  0  0  0  0  0  0  0  0  0  0  0
    5.1940   -2.2480   14.8480 H   0  0  0  0  0  0  0  0  0  0  0  0
    8.8310   -4.2920   16.6000 H   0  0  0  0  0  0  0  0  0  0  0  0
    8.5370   -5.8740   15.8040 H   0  0  0  0  0  0  0  0  0  0  0  0
    2.9680   -1.5290   15.6300 H   0  0  0  0  0  0  0  0  0  0  0  0
    3.4460   -1.7630   17.3530 H   0  0  0  0  0  0  0  0  0  0  0  0
    2.6620   -3.6040   14.1690 H   0  0  0  0  0  0  0  0  0  0  0  0
    3.3690   -3.8630   18.4090 H   0  0  0  0  0  0  0  0  0  0  0  0
   10.3490   -7.7070   18.3260 H   0  0  0  0  0  0  0  0  0  0  0  0
    9.5800   -7.6910   16.7460 H   0  0  0  0  0  0  0  0  0  0  0  0
    1.9190   -5.9920   14.1650 H   0  0  0  0  0  0  0  0  0  0  0  0
    2.6060   -6.2120   18.4060 H   0  0  0  0  0  0  0  0  0  0  0  0
    1.9520   -7.3140   16.2710 H   0  0  0  0  0  0  0  0  0  0  0  0
    5.5630    1.4330   15.8590 H   0  0  0  0  0  0  0  0  0  0  0  0
    4.1790    0.4470   15.1760 H   0  0  0  0  0  0  0  0  0  0  0  0
    5.7390   -2.9880   17.7300 H   0  0  0  0  0  0  0  0  0  0  0  0
    5.9460    0.2280   18.0540 H   0  0  0  0  0  0  0  0  0  0  0  0
    3.7990   -7.5830   19.9590 H   0  0  0  0  0  0  0  0  0  0  0  0
    7.1970    2.9060   12.0720 H   0  0  0  0  0  0  0  0  0  0  0  0
    3.0010    1.9670   11.9880 H   0  0  0  0  0  0  0  0  0  0  0  0
    2.0040   -9.3070   19.7090 H   0  0  0  0  0  0  0  0  0  0  0  0
    1.0670  -11.2620   18.4140 H   0  0  0  0  0  0  0  0  0  0  0  0
    1.2870  -12.8710   16.5190 H   0  0  0  0  0  0  0  0  0  0  0  0
    3.2180  -12.7530   14.9820 H   0  0  0  0  0  0  0  0  0  0  0  0
    9.1010    1.6480   12.9680 H   0  0  0  0  0  0  0  0  0  0  0  0
    5.0010  -11.0310   15.3010 H   0  0  0  0  0  0  0  0  0  0  0  0
    6.8180   -0.7740   16.3160 H   0  0  0  0  0  0  0  0  0  0  0  0
   -0.5410    1.2970   11.7650 H   0  0  0  0  0  0  0  0  0  0  0  0
    0.5400    2.2670   12.8260 H   0  0  0  0  0  0  0  0  0  0  0  0
    0.7750    2.2890   11.0280 H   0  0  0  0  0  0  0  0  0  0  0  0
    4.9530    2.1570   13.2910 H   0  0  0  0  0  0  0  0  0  0  0  0
   -0.0130   -0.6410   13.1980 H   0  0  0  0  0  0  0  0  0  0  0  0
    1.6350   -1.4200   13.1300 H   0  0  0  0  0  0  0  0  0  0  0  0
    1.3620    0.0510   14.1450 H   0  0  0  0  0  0  0  0  0  0  0  0
    6.0150    0.2210   11.1100 H   0  0  0  0  0  0  0  0  0  0  0  0
    5.3170    1.8730   10.9040 H   0  0  0  0  0  0  0  0  0  0  0  0
    1.9630    0.3900    9.8980 H   0  0  0  0  0  0  0  0  0  0  0  0
    2.1900   -1.1810   10.7560 H   0  0  0  0  0  0  0  0  0  0  0  0
    0.5130   -0.5890   10.3420 H   0  0  0  0  0  0  0  0  0  0  0  0
    8.9220    2.5140   10.4370 H   0  0  0  0  0  0  0  0  0  0  0  0
    7.3410    2.2740    9.6080 H   0  0  0  0  0  0  0  0  0  0  0  0
    9.0590    0.5400    9.0050 H   0  0  0  0  0  0  0  0  0  0  0  0
    7.5630   -0.1640    9.7060 H   0  0  0  0  0  0  0  0  0  0  0  0
   10.2390    0.3060   11.1850 H   0  0  0  0  0  0  0  0  0  0  0  0
    9.5560   -1.2870   10.6910 H   0  0  0  0  0  0  0  0  0  0  0  0
    7.5790   -0.9330   12.1460 H   0  0  0  0  0  0  0  0  0  0  0  0
    9.0880   -0.8520   13.1320 H   0  0  0  0  0  0  0  0  0  0  0  0
    7.2120    2.2150   14.4220 H   0  0  0  0  0  0  0  0  0  0  0  0
    7.9740    0.6610   14.9730 H   0  0  0  0  0  0  0  0  0  0  0  0
    6.2080   -0.5500   13.7170 H   0  0  0  0  0  0  0  0  0  0  0  0
  1  2  1  0  0  0  0
  1  4  1  0  0  0  0
  1 50  1  0  0  0  0
  2  6  1  0  0  0  0
  2 19  1  0  0  0  0
  2 51  1  1  0  0  0
  3  7  1  0  0  0  0
  3 23  1  0  0  0  0
  3 37  1  0  0  0  0
  3 52  1  6  0  0  0
  4  5  2  0  0  0  0
  4 22  1  0  0  0  0
  6  8  1  0  0  0  0
  6 53  1  0  0  0  0
  6 54  1  0  0  0  0
  7  9  1  0  0  0  0
  7 55  1  0  0  0  0
  7 56  1  0  0  0  0
  8 13  1  0  0  0  0
  8 14  2  0  0  0  0
  9 11  2  0  0  0  0
  9 12  1  0  0  0  0
 10 27  1  0  0  0  0
 10 38  1  0  0  0  0
 10 41  1  0  0  0  0
 10 43  1  0  0  0  0
 11 15  1  0  0  0  0
 11 57  1  0  0  0  0
 12 16  2  0  0  0  0
 12 58  1  0  0  0  0
 13 59  1  0  0  0  0
 13 60  1  0  0  0  0
 15 17  2  0  0  0  0
 15 61  1  0  0  0  0
 16 17  1  0  0  0  0
 16 62  1  0  0  0  0
 17 63  1  0  0  0  0
 18 37  1  0  0  0  0
 18 39  1  0  0  0  0
 18 64  1  0  0  0  0
 18 65  1  0  0  0  0
 19 21  2  0  0  0  0
 19 23  1  0  0  0  0
 20 22  2  0  0  0  0
 20 36  1  0  0  0  0
 22 25  1  0  0  0  0
 23 66  1  0  0  0  0
 24 37  1  0  0  0  0
 24 67  1  0  0  0  0
 25 29  2  0  0  0  0
 25 68  1  0  0  0  0
 26 34  1  0  0  0  0
 26 42  1  0  0  0  0
 26 44  1  0  0  0  0
 26 69  1  1  0  0  0
 27 49  1  0  0  0  0
 27 70  1  0  0  0  0
 28 49  2  0  0  0  0
 29 30  1  0  0  0  0
 29 71  1  0  0  0  0
 30 31  2  0  0  0  0
 30 36  1  0  0  0  0
 31 32  1  0  0  0  0
 31 72  1  0  0  0  0
 32 33  2  0  0  0  0
 32 73  1  0  0  0  0
 33 35  1  0  0  0  0
 33 74  1  0  0  0  0
 34 47  1  0  0  0  0
 34 48  1  0  0  0  0
 34 75  1  1  0  0  0
 35 36  2  0  0  0  0
 35 76  1  0  0  0  0
 37 77  1  6  0  0  0
 38 78  1  0  0  0  0
 38 79  1  0  0  0  0
 38 80  1  0  0  0  0
 39 40  1  0  0  0  0
 39 48  1  0  0  0  0
 39100  1  6  0  0  0
 40 42  1  0  0  0  0
 40 49  1  0  0  0  0
 40 81  1  1  0  0  0
 41 82  1  0  0  0  0
 41 83  1  0  0  0  0
 41 84  1  0  0  0  0
 42 85  1  0  0  0  0
 42 86  1  0  0  0  0
 43 87  1  0  0  0  0
 43 88  1  0  0  0  0
 43 89  1  0  0  0  0
 44 45  1  0  0  0  0
 44 90  1  0  0  0  0
 44 91  1  0  0  0  0
 45 46  1  0  0  0  0
 45 92  1  0  0  0  0
 45 93  1  0  0  0  0
 46 47  1  0  0  0  0
 46 94  1  0  0  0  0
 46 95  1  0  0  0  0
 47 96  1  0  0  0  0
 47 97  1  0  0  0  0
 48 98  1  0  0  0  0
 48 99  1  0  0  0  0
M  CHG  1  39   1
M  END
>  <charge>
1

>  <KI_NM>
0.04

>  <number_of_rotatable_bonds>
16

>  <lm5_entropy_jk>
41.473308753000644

>  <ligand_crystal_conformation>
A

$$$$
