2Q55
 OpenBabel11252210453D

 93 97  0  0  1  0  0  0  0  0999 V2000
    8.3310   -8.6390   19.0540 C   0  0  0  0  0  0  0  0  0  0  0  0
    7.9700   -6.1340   17.6150 N   0  0  0  0  0  0  0  0  0  0  0  0
    6.6120   -5.4750   19.3510 O   0  0  0  0  0  0  0  0  0  0  0  0
    8.7970   -7.2510   17.0700 C   0  0  0  0  0  0  0  0  0  0  0  0
    7.3650   -7.5790   19.4000 N   0  0  0  0  0  0  0  0  0  0  0  0
    6.8360   -4.3540   14.8680 O   0  0  0  0  0  0  0  0  0  0  0  0
    7.2500   -6.3410   18.8010 C   0  0  0  0  0  0  0  0  0  0  0  0
    5.8560   -3.6080   16.7740 N   0  0  0  0  0  0  0  0  0  0  0  0
    7.1320    0.8080   12.6530 C   0  0  0  0  0  0  0  0  0  0  0  0
    4.4800    0.1140   13.7390 N   0  0  0  0  0  0  0  0  0  0  0  0
    5.0330    0.7190   16.4180 O   0  0  0  0  0  0  0  0  0  0  0  0
    6.9170    2.0990   12.1460 C   0  0  0  0  0  0  0  0  0  0  0  0
    3.4120   -1.8630   13.4020 O   0  0  0  0  0  0  0  0  0  0  0  0
    7.2340    2.4030   10.8110 C   0  0  0  0  0  0  0  0  0  0  0  0
    7.7740    1.4090    9.9800 C   0  0  0  0  0  0  0  0  0  0  0  0
    7.9950    0.1180   10.4830 C   0  0  0  0  0  0  0  0  0  0  0  0
    7.6610   -0.1830   11.8160 C   0  0  0  0  0  0  0  0  0  0  0  0
    8.0660   -4.7360   16.9870 C   0  0  2  0  0  0  0  0  0  0  0  0
    6.8540   -4.2840   16.0930 C   0  0  0  0  0  0  0  0  0  0  0  0
    4.6380   -3.0710   16.1640 C   0  0  1  0  0  0  0  0  0  0  0  0
    9.4590   -4.4230   16.3610 C   0  0  0  0  0  0  0  0  0  0  0  0
    9.5760   -2.9800   15.8840 C   0  0  0  0  0  0  0  0  0  0  0  0
   10.5800   -4.6190   17.4090 C   0  0  0  0  0  0  0  0  0  0  0  0
    2.6670   -6.6970   14.4740 C   0  0  0  0  0  0  0  0  0  0  0  0
    3.1470   -7.7910   15.2200 C   0  0  0  0  0  0  0  0  0  0  0  0
    3.6720   -7.5890   16.5050 C   0  0  0  0  0  0  0  0  0  0  0  0
    3.7440   -6.2880   17.0250 C   0  0  0  0  0  0  0  0  0  0  0  0
    3.2970   -5.1990   16.2650 C   0  0  0  0  0  0  0  0  0  0  0  0
    2.7420   -5.4040   14.9990 C   0  0  0  0  0  0  0  0  0  0  0  0
    3.4340   -3.7980   16.7830 C   0  0  0  0  0  0  0  0  0  0  0  0
    4.4330   -1.5670   16.4450 C   0  0  0  0  0  0  0  0  0  0  0  0
    5.4910   -0.5500   15.9690 C   0  0  1  0  0  0  0  0  0  0  0  0
    5.6830   -0.4260   14.4200 C   0  0  2  0  0  0  0  0  0  0  0  0
    3.4300   -0.6500   13.2830 C   0  0  0  0  0  0  0  0  0  0  0  0
    2.3240    0.0900   12.5060 C   0  0  1  0  0  0  0  0  0  0  0  0
    1.7310    1.2300   13.1970 O   0  0  0  0  0  0  0  0  0  0  0  0
    6.8790    0.5200   14.1190 C   0  0  0  0  0  0  0  0  0  0  0  0
    1.5200    2.2950   12.3610 C   0  0  0  0  0  0  0  0  0  0  0  0
    0.9690    3.3390   12.6430 O   0  0  0  0  0  0  0  0  0  0  0  0
    2.2040    2.0500   11.2070 N   0  0  0  0  0  0  0  0  0  0  0  0
    2.8030    0.7190   11.1890 C   0  0  0  0  0  0  0  0  0  0  0  0
    2.3760    2.9840   10.1680 C   0  0  0  0  0  0  0  0  0  0  0  0
    3.6580    3.4520    9.8570 C   0  0  0  0  0  0  0  0  0  0  0  0
    3.8450    4.3950    8.8330 C   0  0  0  0  0  0  0  0  0  0  0  0
    2.7320    4.8670    8.1170 C   0  0  0  0  0  0  0  0  0  0  0  0
    1.4420    4.4060    8.4280 C   0  0  0  0  0  0  0  0  0  0  0  0
    1.2710    3.4650    9.4580 C   0  0  0  0  0  0  0  0  0  0  0  0
    9.4590   -8.0200   18.2230 C   0  0  0  0  0  0  0  0  0  0  0  0
    7.8200   -9.4300   18.4820 H   0  0  0  0  0  0  0  0  0  0  0  0
    8.7270   -9.1110   19.9690 H   0  0  0  0  0  0  0  0  0  0  0  0
    9.5380   -6.9260   16.3350 H   0  0  0  0  0  0  0  0  0  0  0  0
    8.1320   -7.9530   16.5660 H   0  0  0  0  0  0  0  0  0  0  0  0
    6.8340   -7.6670   20.2590 H   0  0  0  0  0  0  0  0  0  0  0  0
    5.9170   -3.6060   17.7920 H   0  0  0  0  0  0  0  0  0  0  0  0
    4.4060    1.1120   13.5920 H   0  0  0  0  0  0  0  0  0  0  0  0
    4.9070    1.2200   15.5920 H   0  0  0  0  0  0  0  0  0  0  0  0
    6.5270    2.8790   12.7970 H   0  0  0  0  0  0  0  0  0  0  0  0
    7.0810    3.4110   10.4260 H   0  0  0  0  0  0  0  0  0  0  0  0
    8.0280    1.6470    8.9470 H   0  0  0  0  0  0  0  0  0  0  0  0
    8.4360   -0.6410    9.8430 H   0  0  0  0  0  0  0  0  0  0  0  0
    7.8390   -1.1760   12.2130 H   0  0  0  0  0  0  0  0  0  0  0  0
    7.9820   -4.0240   17.8050 H   0  0  0  0  0  0  0  0  0  0  0  0
    4.6550   -3.2520   15.0740 H   0  0  0  0  0  0  0  0  0  0  0  0
    9.6070   -5.0660   15.4780 H   0  0  0  0  0  0  0  0  0  0  0  0
   10.6020   -2.7710   15.5650 H   0  0  0  0  0  0  0  0  0  0  0  0
    8.9230   -2.7880   15.0250 H   0  0  0  0  0  0  0  0  0  0  0  0
    9.3040   -2.2640   16.6690 H   0  0  0  0  0  0  0  0  0  0  0  0
   11.0710   -3.6780   17.6800 H   0  0  0  0  0  0  0  0  0  0  0  0
   10.1900   -5.0180   18.3510 H   0  0  0  0  0  0  0  0  0  0  0  0
   11.3460   -5.3130   17.0510 H   0  0  0  0  0  0  0  0  0  0  0  0
    2.2610   -6.8350   13.4770 H   0  0  0  0  0  0  0  0  0  0  0  0
    3.1290   -8.7980   14.8060 H   0  0  0  0  0  0  0  0  0  0  0  0
    4.0480   -8.4330   17.0850 H   0  0  0  0  0  0  0  0  0  0  0  0
    4.1840   -6.1170   18.0050 H   0  0  0  0  0  0  0  0  0  0  0  0
    2.3930   -4.5530   14.4190 H   0  0  0  0  0  0  0  0  0  0  0  0
    2.5100   -3.2540   16.5700 H   0  0  0  0  0  0  0  0  0  0  0  0
    3.5280   -3.8050   17.8750 H   0  0  0  0  0  0  0  0  0  0  0  0
    4.3340   -1.4360   17.5240 H   0  0  0  0  0  0  0  0  0  0  0  0
    3.4720   -1.2620   16.0230 H   0  0  0  0  0  0  0  0  0  0  0  0
    6.4570   -0.8040   16.4400 H   0  0  0  0  0  0  0  0  0  0  0  0
    5.9070   -1.4340   14.0350 H   0  0  0  0  0  0  0  0  0  0  0  0
    1.5530   -0.6690   12.3130 H   0  0  0  0  0  0  0  0  0  0  0  0
    6.7540    1.4690   14.6550 H   0  0  0  0  0  0  0  0  0  0  0  0
    7.7890    0.1010   14.5660 H   0  0  0  0  0  0  0  0  0  0  0  0
    2.4370    0.1470   10.3240 H   0  0  0  0  0  0  0  0  0  0  0  0
    3.9030    0.7870   11.1230 H   0  0  0  0  0  0  0  0  0  0  0  0
    4.5110    3.0760   10.4130 H   0  0  0  0  0  0  0  0  0  0  0  0
    4.8460    4.7590    8.5950 H   0  0  0  0  0  0  0  0  0  0  0  0
    2.8700    5.6000    7.3210 H   0  0  0  0  0  0  0  0  0  0  0  0
    0.5770    4.7840    7.8800 H   0  0  0  0  0  0  0  0  0  0  0  0
    0.2740    3.1150    9.7110 H   0  0  0  0  0  0  0  0  0  0  0  0
   10.1410   -8.8020   17.8570 H   0  0  0  0  0  0  0  0  0  0  0  0
   10.0710   -7.3480   18.8390 H   0  0  0  0  0  0  0  0  0  0  0  0
  1  5  1  0  0  0  0
  1 48  1  0  0  0  0
  1 49  1  0  0  0  0
  1 50  1  0  0  0  0
  2  4  1  0  0  0  0
  2  7  1  0  0  0  0
  2 18  1  0  0  0  0
  3  7  2  0  0  0  0
  4 48  1  0  0  0  0
  4 51  1  0  0  0  0
  4 52  1  0  0  0  0
  5  7  1  0  0  0  0
  5 53  1  0  0  0  0
  6 19  2  0  0  0  0
  8 19  1  0  0  0  0
  8 20  1  0  0  0  0
  8 54  1  0  0  0  0
  9 12  2  0  0  0  0
  9 17  1  0  0  0  0
  9 37  1  0  0  0  0
 10 33  1  0  0  0  0
 10 34  1  0  0  0  0
 10 55  1  0  0  0  0
 11 32  1  0  0  0  0
 11 56  1  0  0  0  0
 12 14  1  0  0  0  0
 12 57  1  0  0  0  0
 13 34  2  0  0  0  0
 14 15  2  0  0  0  0
 14 58  1  0  0  0  0
 15 16  1  0  0  0  0
 15 59  1  0  0  0  0
 16 17  2  0  0  0  0
 16 60  1  0  0  0  0
 17 61  1  0  0  0  0
 18 19  1  0  0  0  0
 18 21  1  0  0  0  0
 18 62  1  1  0  0  0
 20 30  1  0  0  0  0
 20 31  1  0  0  0  0
 20 63  1  6  0  0  0
 21 22  1  0  0  0  0
 21 23  1  0  0  0  0
 21 64  1  0  0  0  0
 22 65  1  0  0  0  0
 22 66  1  0  0  0  0
 22 67  1  0  0  0  0
 23 68  1  0  0  0  0
 23 69  1  0  0  0  0
 23 70  1  0  0  0  0
 24 25  2  0  0  0  0
 24 29  1  0  0  0  0
 24 71  1  0  0  0  0
 25 26  1  0  0  0  0
 25 72  1  0  0  0  0
 26 27  2  0  0  0  0
 26 73  1  0  0  0  0
 27 28  1  0  0  0  0
 27 74  1  0  0  0  0
 28 29  2  0  0  0  0
 28 30  1  0  0  0  0
 29 75  1  0  0  0  0
 30 76  1  0  0  0  0
 30 77  1  0  0  0  0
 31 32  1  0  0  0  0
 31 78  1  0  0  0  0
 31 79  1  0  0  0  0
 32 33  1  0  0  0  0
 32 80  1  1  0  0  0
 33 37  1  0  0  0  0
 33 81  1  6  0  0  0
 34 35  1  0  0  0  0
 35 36  1  0  0  0  0
 35 41  1  0  0  0  0
 35 82  1  1  0  0  0
 36 38  1  0  0  0  0
 37 83  1  0  0  0  0
 37 84  1  0  0  0  0
 38 39  2  0  0  0  0
 38 40  1  0  0  0  0
 40 41  1  0  0  0  0
 40 42  1  0  0  0  0
 41 85  1  0  0  0  0
 41 86  1  0  0  0  0
 42 43  2  0  0  0  0
 42 47  1  0  0  0  0
 43 44  1  0  0  0  0
 43 87  1  0  0  0  0
 44 45  2  0  0  0  0
 44 88  1  0  0  0  0
 45 46  1  0  0  0  0
 45 89  1  0  0  0  0
 46 47  2  0  0  0  0
 46 90  1  0  0  0  0
 47 91  1  0  0  0  0
 48 92  1  0  0  0  0
 48 93  1  0  0  0  0
M  END
>  <charge>
0

>  <KI_NM>
2.04

>  <number_of_rotatable_bonds>
16

>  <lm5_entropy_jk>
39.118013893725276

>  <ligand_crystal_conformation>
A

$$$$
