2Q55
 OpenBabel11252210453D

 93 97  0  0  1  0  0  0  0  0999 V2000
    7.2140   -8.9340   18.0930 C   0  0  0  0  0  0  0  0  0  0  0  0
    7.3110   -6.1730   17.2750 N   0  0  0  0  0  0  0  0  0  0  0  0
    7.2030   -5.5880   19.4890 O   0  0  0  0  0  0  0  0  0  0  0  0
    7.1560   -7.2310   16.2600 C   0  0  0  0  0  0  0  0  0  0  0  0
    7.1170   -7.7730   19.0010 N   0  0  0  0  0  0  0  0  0  0  0  0
    6.5860   -4.1050   14.7030 O   0  0  0  0  0  0  0  0  0  0  0  0
    7.1990   -6.4510   18.6400 C   0  0  0  0  0  0  0  0  0  0  0  0
    5.5290   -3.6710   16.6590 N   0  0  0  0  0  0  0  0  0  0  0  0
    7.0410    0.6220   12.6530 C   0  0  0  0  0  0  0  0  0  0  0  0
    4.3850    0.0590   13.7230 N   0  0  0  0  0  0  0  0  0  0  0  0
    5.0920    0.4990   16.5400 O   0  0  0  0  0  0  0  0  0  0  0  0
    6.6690    1.8620   12.1110 C   0  0  0  0  0  0  0  0  0  0  0  0
    3.3940   -1.8550   13.0350 O   0  0  0  0  0  0  0  0  0  0  0  0
    6.9050    2.1450   10.7550 C   0  0  0  0  0  0  0  0  0  0  0  0
    7.5210    1.1810    9.9410 C   0  0  0  0  0  0  0  0  0  0  0  0
    7.9050   -0.0570   10.4830 C   0  0  0  0  0  0  0  0  0  0  0  0
    7.6590   -0.3360   11.8380 C   0  0  0  0  0  0  0  0  0  0  0  0
    7.6890   -4.8030   16.7820 C   0  0  2  0  0  0  0  0  0  0  0  0
    6.5700   -4.1750   15.9240 C   0  0  0  0  0  0  0  0  0  0  0  0
    4.2890   -3.1720   16.1030 C   0  0  1  0  0  0  0  0  0  0  0  0
    9.1270   -4.7610   16.1740 C   0  0  0  0  0  0  0  0  0  0  0  0
    9.5340   -3.3470   15.7420 C   0  0  0  0  0  0  0  0  0  0  0  0
   10.1650   -5.1910   17.2280 C   0  0  0  0  0  0  0  0  0  0  0  0
    2.3000   -7.3130   15.5220 C   0  0  0  0  0  0  0  0  0  0  0  0
    2.8890   -8.1390   16.4930 C   0  0  0  0  0  0  0  0  0  0  0  0
    3.5770   -7.5660   17.5740 C   0  0  0  0  0  0  0  0  0  0  0  0
    3.6700   -6.1690   17.6760 C   0  0  0  0  0  0  0  0  0  0  0  0
    3.0800   -5.3440   16.7090 C   0  0  0  0  0  0  0  0  0  0  0  0
    2.3990   -5.9180   15.6300 C   0  0  0  0  0  0  0  0  0  0  0  0
    3.1330   -3.8410   16.8600 C   0  0  0  0  0  0  0  0  0  0  0  0
    4.1690   -1.6610   16.3400 C   0  0  0  0  0  0  0  0  0  0  0  0
    5.3460   -0.7610   15.9280 C   0  0  1  0  0  0  0  0  0  0  0  0
    5.5530   -0.5600   14.3890 C   0  0  2  0  0  0  0  0  0  0  0  0
    3.4150   -0.6360   13.0510 C   0  0  0  0  0  0  0  0  0  0  0  0
    2.3730    0.2060   12.2810 C   0  0  1  0  0  0  0  0  0  0  0  0
    1.7970    1.3150   13.0350 O   0  0  0  0  0  0  0  0  0  0  0  0
    6.7980    0.3320   14.1200 C   0  0  0  0  0  0  0  0  0  0  0  0
    1.4790    2.3720   12.2240 C   0  0  0  0  0  0  0  0  0  0  0  0
    0.9000    3.3880   12.5620 O   0  0  0  0  0  0  0  0  0  0  0  0
    2.1000    2.1660   11.0160 N   0  0  0  0  0  0  0  0  0  0  0  0
    2.8870    0.9240   11.0160 C   0  0  0  0  0  0  0  0  0  0  0  0
    1.9400    2.9790    9.8690 C   0  0  0  0  0  0  0  0  0  0  0  0
    3.0380    3.2660    9.0480 C   0  0  0  0  0  0  0  0  0  0  0  0
    2.8860    4.0560    7.8950 C   0  0  0  0  0  0  0  0  0  0  0  0
    1.6200    4.5690    7.5700 C   0  0  0  0  0  0  0  0  0  0  0  0
    0.5140    4.2930    8.3890 C   0  0  0  0  0  0  0  0  0  0  0  0
    0.6790    3.4900    9.5300 C   0  0  0  0  0  0  0  0  0  0  0  0
    7.8710   -8.4930   16.7740 C   0  0  0  0  0  0  0  0  0  0  0  0
    6.2040   -9.3260   17.8940 H   0  0  0  0  0  0  0  0  0  0  0  0
    7.7910   -9.7440   18.5700 H   0  0  0  0  0  0  0  0  0  0  0  0
    7.5490   -6.9060   15.2870 H   0  0  0  0  0  0  0  0  0  0  0  0
    6.0810   -7.4320   16.1220 H   0  0  0  0  0  0  0  0  0  0  0  0
    7.0360   -7.9010   20.0090 H   0  0  0  0  0  0  0  0  0  0  0  0
    5.5910   -3.7760   17.6680 H   0  0  0  0  0  0  0  0  0  0  0  0
    4.2840    1.0630   13.7560 H   0  0  0  0  0  0  0  0  0  0  0  0
    5.9700    0.7430   16.9360 H   0  0  0  0  0  0  0  0  0  0  0  0
    6.2020    2.6130   12.7450 H   0  0  0  0  0  0  0  0  0  0  0  0
    6.6190    3.1110   10.3370 H   0  0  0  0  0  0  0  0  0  0  0  0
    7.7020    1.3970    8.8880 H   0  0  0  0  0  0  0  0  0  0  0  0
    8.3910   -0.7990    9.8550 H   0  0  0  0  0  0  0  0  0  0  0  0
    7.9580   -1.2910   12.2610 H   0  0  0  0  0  0  0  0  0  0  0  0
    7.7150   -4.1360   17.6440 H   0  0  0  0  0  0  0  0  0  0  0  0
    4.2270   -3.4080   15.0250 H   0  0  0  0  0  0  0  0  0  0  0  0
    9.1730   -5.4330   15.3020 H   0  0  0  0  0  0  0  0  0  0  0  0
   10.5810   -3.3150   15.4170 H   0  0  0  0  0  0  0  0  0  0  0  0
    8.9230   -3.0030   14.8980 H   0  0  0  0  0  0  0  0  0  0  0  0
    9.4100   -2.6310   16.5600 H   0  0  0  0  0  0  0  0  0  0  0  0
   11.1740   -5.2380   16.8100 H   0  0  0  0  0  0  0  0  0  0  0  0
   10.1850   -4.4980   18.0780 H   0  0  0  0  0  0  0  0  0  0  0  0
    9.9330   -6.1870   17.6220 H   0  0  0  0  0  0  0  0  0  0  0  0
    1.7800   -7.7540   14.6790 H   0  0  0  0  0  0  0  0  0  0  0  0
    2.8220   -9.2240   16.4050 H   0  0  0  0  0  0  0  0  0  0  0  0
    4.0450   -8.1990   18.3280 H   0  0  0  0  0  0  0  0  0  0  0  0
    4.2150   -5.7210   18.5040 H   0  0  0  0  0  0  0  0  0  0  0  0
    1.9340   -5.2760   14.8880 H   0  0  0  0  0  0  0  0  0  0  0  0
    2.1830   -3.4070   16.5370 H   0  0  0  0  0  0  0  0  0  0  0  0
    3.2110   -3.5970   17.9260 H   0  0  0  0  0  0  0  0  0  0  0  0
    4.0510   -1.5250   17.4180 H   0  0  0  0  0  0  0  0  0  0  0  0
    3.2500   -1.2860   15.8810 H   0  0  0  0  0  0  0  0  0  0  0  0
    6.2750   -1.1900   16.3440 H   0  0  0  0  0  0  0  0  0  0  0  0
    5.7320   -1.5590   13.9570 H   0  0  0  0  0  0  0  0  0  0  0  0
    1.5810   -0.5040   12.0070 H   0  0  0  0  0  0  0  0  0  0  0  0
    6.6980    1.2780   14.6670 H   0  0  0  0  0  0  0  0  0  0  0  0
    7.6890   -0.1340   14.5580 H   0  0  0  0  0  0  0  0  0  0  0  0
    2.7070    0.3370   10.1030 H   0  0  0  0  0  0  0  0  0  0  0  0
    3.9660    1.1440   11.0850 H   0  0  0  0  0  0  0  0  0  0  0  0
    4.0190    2.8810    9.3100 H   0  0  0  0  0  0  0  0  0  0  0  0
    3.7490    4.2810    7.2650 H   0  0  0  0  0  0  0  0  0  0  0  0
    1.5000    5.1940    6.6840 H   0  0  0  0  0  0  0  0  0  0  0  0
   -0.4670    4.7010    8.1410 H   0  0  0  0  0  0  0  0  0  0  0  0
   -0.1790    3.2620   10.1560 H   0  0  0  0  0  0  0  0  0  0  0  0
    7.8170   -9.3040   16.0420 H   0  0  0  0  0  0  0  0  0  0  0  0
    8.9370   -8.2790   16.9360 H   0  0  0  0  0  0  0  0  0  0  0  0
  1  5  1  0  0  0  0
  1 48  1  0  0  0  0
  1 49  1  0  0  0  0
  1 50  1  0  0  0  0
  2  4  1  0  0  0  0
  2  7  1  0  0  0  0
  2 18  1  0  0  0  0
  3  7  2  0  0  0  0
  4 48  1  0  0  0  0
  4 51  1  0  0  0  0
  4 52  1  0  0  0  0
  5  7  1  0  0  0  0
  5 53  1  0  0  0  0
  6 19  2  0  0  0  0
  8 19  1  0  0  0  0
  8 20  1  0  0  0  0
  8 54  1  0  0  0  0
  9 12  2  0  0  0  0
  9 17  1  0  0  0  0
  9 37  1  0  0  0  0
 10 33  1  0  0  0  0
 10 34  1  0  0  0  0
 10 55  1  0  0  0  0
 11 32  1  0  0  0  0
 11 56  1  0  0  0  0
 12 14  1  0  0  0  0
 12 57  1  0  0  0  0
 13 34  2  0  0  0  0
 14 15  2  0  0  0  0
 14 58  1  0  0  0  0
 15 16  1  0  0  0  0
 15 59  1  0  0  0  0
 16 17  2  0  0  0  0
 16 60  1  0  0  0  0
 17 61  1  0  0  0  0
 18 19  1  0  0  0  0
 18 21  1  0  0  0  0
 18 62  1  1  0  0  0
 20 30  1  0  0  0  0
 20 31  1  0  0  0  0
 20 63  1  6  0  0  0
 21 22  1  0  0  0  0
 21 23  1  0  0  0  0
 21 64  1  0  0  0  0
 22 65  1  0  0  0  0
 22 66  1  0  0  0  0
 22 67  1  0  0  0  0
 23 68  1  0  0  0  0
 23 69  1  0  0  0  0
 23 70  1  0  0  0  0
 24 25  2  0  0  0  0
 24 29  1  0  0  0  0
 24 71  1  0  0  0  0
 25 26  1  0  0  0  0
 25 72  1  0  0  0  0
 26 27  2  0  0  0  0
 26 73  1  0  0  0  0
 27 28  1  0  0  0  0
 27 74  1  0  0  0  0
 28 29  2  0  0  0  0
 28 30  1  0  0  0  0
 29 75  1  0  0  0  0
 30 76  1  0  0  0  0
 30 77  1  0  0  0  0
 31 32  1  0  0  0  0
 31 78  1  0  0  0  0
 31 79  1  0  0  0  0
 32 33  1  0  0  0  0
 32 80  1  1  0  0  0
 33 37  1  0  0  0  0
 33 81  1  6  0  0  0
 34 35  1  0  0  0  0
 35 36  1  0  0  0  0
 35 41  1  0  0  0  0
 35 82  1  1  0  0  0
 36 38  1  0  0  0  0
 37 83  1  0  0  0  0
 37 84  1  0  0  0  0
 38 39  2  0  0  0  0
 38 40  1  0  0  0  0
 40 41  1  0  0  0  0
 40 42  1  0  0  0  0
 41 85  1  0  0  0  0
 41 86  1  0  0  0  0
 42 43  2  0  0  0  0
 42 47  1  0  0  0  0
 43 44  1  0  0  0  0
 43 87  1  0  0  0  0
 44 45  2  0  0  0  0
 44 88  1  0  0  0  0
 45 46  1  0  0  0  0
 45 89  1  0  0  0  0
 46 47  2  0  0  0  0
 46 90  1  0  0  0  0
 47 91  1  0  0  0  0
 48 92  1  0  0  0  0
 48 93  1  0  0  0  0
M  END
>  <charge>
0

>  <KI_NM>
2.04

>  <number_of_rotatable_bonds>
16

>  <lm5_entropy_jk>
39.118013893725276

>  <ligand_crystal_conformation>
A

$$$$
