4K6Z
 OpenBabel11252210453D

 39 42  0  0  1  0  0  0  0  0999 V2000
  -17.3100   25.4830   -0.8580 N   0  0  0  0  0  0  0  0  0  0  0  0
  -17.3720   27.8720   -1.2750 C   0  0  0  0  0  0  0  0  0  0  0  0
  -15.6130   24.4450    0.1630 O   0  0  0  0  0  0  0  0  0  0  0  0
  -17.9400   26.6120   -1.3720 C   0  0  0  0  0  0  0  0  0  0  0  0
  -14.1260   29.2590    0.0960 N   0  0  0  0  0  0  0  0  0  0  0  0
  -16.0780   25.4810   -0.2730 C   0  0  0  0  0  0  0  0  0  0  0  0
  -14.1540   26.8930    0.3780 N   0  0  0  0  0  0  0  0  0  0  0  0
  -15.3770   26.8210   -0.1950 C   0  0  0  0  0  0  0  0  0  0  0  0
  -10.5640   27.4320    2.3610 N   0  0  0  0  0  0  0  0  0  0  0  0
  -16.0240   27.9770   -0.6730 C   0  0  0  0  0  0  0  0  0  0  0  0
  -10.4640   28.7890    2.0830 N   0  0  0  0  0  0  0  0  0  0  0  0
  -15.3260   29.2000   -0.4930 C   0  0  0  0  0  0  0  0  0  0  0  0
  -15.8740   30.4520   -0.6860 N   0  0  0  0  0  0  0  0  0  0  0  0
  -13.5840   28.0980    0.4890 C   0  0  0  0  0  0  0  0  0  0  0  0
  -13.9270   29.1640   -4.0000 N   0  0  0  0  0  0  0  0  0  0  0  0
  -12.2810   28.1530    1.1540 C   0  0  0  0  0  0  0  0  0  0  0  0
  -11.6990   27.0410    1.7980 C   0  0  0  0  0  0  0  0  0  0  0  0
  -11.5310   29.2680    1.3340 C   0  0  0  0  0  0  0  0  0  0  0  0
  -16.2420   31.0920   -1.9640 C   0  0  1  0  0  0  0  0  0  0  0  0
  -16.4790   32.5780   -1.6140 C   0  0  0  0  0  0  0  0  0  0  0  0
  -15.0790   33.2710   -1.5830 C   0  0  0  0  0  0  0  0  0  0  0  0
  -14.1080   32.2340   -2.2060 C   0  0  0  0  0  0  0  0  0  0  0  0
  -15.0480   31.2610   -2.9240 C   0  0  1  0  0  0  0  0  0  0  0  0
  -14.4280   30.0600   -3.4830 C   0  0  0  0  0  0  0  0  0  0  0  0
  -17.9120   28.7260   -1.6690 H   0  0  0  0  0  0  0  0  0  0  0  0
  -18.8990   26.4030   -1.8380 H   0  0  0  0  0  0  0  0  0  0  0  0
  -17.7530   24.5650   -0.8600 H   0  0  0  0  0  0  0  0  0  0  0  0
  -15.4170   31.1050   -0.0680 H   0  0  0  0  0  0  0  0  0  0  0  0
  -17.1200   30.6200   -2.4390 H   0  0  0  0  0  0  0  0  0  0  0  0
  -17.0260   32.7100   -0.6710 H   0  0  0  0  0  0  0  0  0  0  0  0
  -17.1180   33.0390   -2.3840 H   0  0  0  0  0  0  0  0  0  0  0  0
  -15.1030   34.2110   -2.1590 H   0  0  0  0  0  0  0  0  0  0  0  0
  -14.7810   33.5440   -0.5570 H   0  0  0  0  0  0  0  0  0  0  0  0
  -13.5550   31.6990   -1.4210 H   0  0  0  0  0  0  0  0  0  0  0  0
   -9.6890   29.3410    2.4400 H   0  0  0  0  0  0  0  0  0  0  0  0
  -11.6700   30.3070    1.0530 H   0  0  0  0  0  0  0  0  0  0  0  0
  -12.0530   26.0150    1.8940 H   0  0  0  0  0  0  0  0  0  0  0  0
  -13.3730   32.6610   -2.9020 H   0  0  0  0  0  0  0  0  0  0  0  0
  -15.4170   31.7970   -3.8040 H   0  0  0  0  0  0  0  0  0  0  0  0
  1  6  1  0  0  0  0
  2 10  1  0  0  0  0
  4  2  2  0  0  0  0
  4  1  1  0  0  0  0
  5 14  2  0  0  0  0
  6  8  1  0  0  0  0
  6  3  2  0  0  0  0
  7 14  1  0  0  0  0
  8  7  2  0  0  0  0
 10 12  2  0  0  0  0
 10  8  1  0  0  0  0
 11 35  1  0  0  0  0
 11  9  1  0  0  0  0
 12  5  1  0  0  0  0
 13 28  1  0  0  0  0
 13 12  1  0  0  0  0
 14 16  1  0  0  0  0
 15 24  3  0  0  0  0
 16 17  1  0  0  0  0
 17  9  2  0  0  0  0
 17 37  1  0  0  0  0
 18 16  2  0  0  0  0
 18 11  1  0  0  0  0
 19 29  1  6  0  0  0
 19 20  1  0  0  0  0
 19 13  1  0  0  0  0
 19 23  1  0  0  0  0
 20 30  1  0  0  0  0
 21 33  1  0  0  0  0
 21 20  1  0  0  0  0
 22 34  1  0  0  0  0
 22 21  1  0  0  0  0
 23 39  1  6  0  0  0
 23 22  1  0  0  0  0
 24 23  1  0  0  0  0
 25  2  1  0  0  0  0
 26  4  1  0  0  0  0
 27  1  1  0  0  0  0
 31 20  1  0  0  0  0
 32 21  1  0  0  0  0
 36 18  1  0  0  0  0
 38 22  1  0  0  0  0
M  END
>  <charge>
0

>  <pKi>
8.7

>  <number_of_rotatable_bonds>
3
3

>  <lm5_entropy_jk>
20.793680313784687

$$$$
