4EHZ
 OpenBabel11252210453D

 37 40  0  0  0  0  0  0  0  0999 V2000
  -11.5950   29.2370    1.0240 C   0  0  0  0  0  0  0  0  0  0  0  0
  -12.6800   28.2660    0.7800 C   0  0  0  0  0  0  0  0  0  0  0  0
  -12.5600   27.0050    1.1970 N   0  0  0  0  0  0  0  0  0  0  0  0
  -13.7100   26.4480    0.7790 C   0  0  0  0  0  0  0  0  0  0  0  0
  -14.0830   25.1070    0.9340 C   0  0  0  0  0  0  0  0  0  0  0  0
  -15.2630   24.6410    0.4530 N   0  0  0  0  0  0  0  0  0  0  0  0
  -16.0800   25.5220   -0.1640 C   0  0  0  0  0  0  0  0  0  0  0  0
  -15.7770   26.8610   -0.3360 C   0  0  0  0  0  0  0  0  0  0  0  0
  -14.5300   27.3270    0.1410 C   0  0  0  0  0  0  0  0  0  0  0  0
  -13.8670   28.5410    0.0720 N   0  0  0  0  0  0  0  0  0  0  0  0
  -14.1810   29.7830   -0.6540 C   0  0  0  0  0  0  0  0  0  0  0  0
  -14.3980   29.5740   -2.1740 C   0  0  0  0  0  0  0  0  0  0  0  0
  -14.8490   30.8810   -2.9020 C   0  0  0  0  0  0  0  0  0  0  0  0
  -16.0910   31.5150   -2.2460 N   0  3  0  0  0  0  0  0  0  0  0  0
  -15.7180   31.8420   -0.7880 C   0  0  0  0  0  0  0  0  0  0  0  0
  -15.3310   30.5550    0.0170 C   0  0  0  0  0  0  0  0  0  0  0  0
  -16.8940   27.4710   -1.0310 C   0  0  0  0  0  0  0  0  0  0  0  0
  -17.8170   26.4640   -1.2790 C   0  0  0  0  0  0  0  0  0  0  0  0
  -17.3040   25.2740   -0.7310 N   0  0  0  0  0  0  0  0  0  0  0  0
  -13.4280   24.4040    1.4460 H   0  0  0  0  0  0  0  0  0  0  0  0
  -13.2960   30.4340   -0.5800 H   0  0  0  0  0  0  0  0  0  0  0  0
  -13.4600   29.1970   -2.6100 H   0  0  0  0  0  0  0  0  0  0  0  0
  -15.1190   28.7630   -2.3400 H   0  0  0  0  0  0  0  0  0  0  0  0
  -14.0380   31.6240   -2.8910 H   0  0  0  0  0  0  0  0  0  0  0  0
  -15.0770   30.6660   -3.9570 H   0  0  0  0  0  0  0  0  0  0  0  0
  -16.4360   32.3640   -2.7640 H   0  0  0  0  0  0  0  0  0  0  0  0
  -16.8890   30.8530   -2.2800 H   0  0  0  0  0  0  0  0  0  0  0  0
  -16.5520   32.3880   -0.3160 H   0  0  0  0  0  0  0  0  0  0  0  0
  -14.8730   32.5480   -0.8080 H   0  0  0  0  0  0  0  0  0  0  0  0
  -16.1770   29.8660    0.1420 H   0  0  0  0  0  0  0  0  0  0  0  0
  -15.0180   30.8050    1.0460 H   0  0  0  0  0  0  0  0  0  0  0  0
  -17.0340   28.4970   -1.3420 H   0  0  0  0  0  0  0  0  0  0  0  0
  -18.7770   26.5020   -1.7890 H   0  0  0  0  0  0  0  0  0  0  0  0
  -17.7700   24.3690   -0.6910 H   0  0  0  0  0  0  0  0  0  0  0  0
  -11.0170   28.9280    1.9030 H   0  0  0  0  0  0  0  0  0  0  0  0
  -11.9810   30.2360    1.2330 H   0  0  0  0  0  0  0  0  0  0  0  0
  -10.9120   29.2710    0.1730 H   0  0  0  0  0  0  0  0  0  0  0  0
  1  2  1  0  0  0  0
  2 10  1  0  0  0  0
  2  3  2  0  0  0  0
  4  5  2  0  0  0  0
  4  9  1  0  0  0  0
  4  3  1  0  0  0  0
  5  6  1  0  0  0  0
  7  8  1  0  0  0  0
  7 19  1  0  0  0  0
  7  6  2  0  0  0  0
  8  9  2  0  0  0  0
  9 10  1  0  0  0  0
 11 12  1  0  0  0  0
 11 16  1  0  0  0  0
 11 10  1  0  0  0  0
 12 13  1  0  0  0  0
 13 14  1  0  0  0  0
 15 16  1  0  0  0  0
 15 14  1  0  0  0  0
 17 18  2  0  0  0  0
 17  8  1  0  0  0  0
 18 19  1  0  0  0  0
 20  5  1  0  0  0  0
 21 11  1  0  0  0  0
 22 12  1  0  0  0  0
 23 12  1  0  0  0  0
 24 13  1  0  0  0  0
 25 13  1  0  0  0  0
 26 14  1  0  0  0  0
 27 14  1  0  0  0  0
 28 15  1  0  0  0  0
 29 15  1  0  0  0  0
 30 16  1  0  0  0  0
 31 16  1  0  0  0  0
 32 17  1  0  0  0  0
 33 18  1  0  0  0  0
 34 19  1  0  0  0  0
 35  1  1  0  0  0  0
 36  1  1  0  0  0  0
 37  1  1  0  0  0  0
M  CHG  1  14   1
M  END
>  <charge>
1

>  <pKi>
8

>  <number_of_rotatable_bonds>
1

>  <lm5_entropy_jk>
22.786904138289753

$$$$
