5NXI
 OpenBabel11252210453D

 31 32  0  0  0  0  0  0  0  0999 V2000
   -3.9280    7.2310   12.6220 N   0  0  0  0  0  0  0  0  0  0  0  0
   -5.2500    1.1070   15.6830 N   0  5  0  0  0  0  0  0  0  0  0  0
   -2.4090    9.2450   11.7360 C   0  0  0  0  0  0  0  0  0  0  0  0
   -1.7990    9.7860   12.8750 C   0  0  0  0  0  0  0  0  0  0  0  0
   -1.6380   11.1710   13.0010 C   0  0  0  0  0  0  0  0  0  0  0  0
   -2.1070   12.0010   11.9820 C   0  0  0  0  0  0  0  0  0  0  0  0
   -2.7180   11.4800   10.8410 C   0  0  0  0  0  0  0  0  0  0  0  0
   -2.8730   10.0920   10.7250 C   0  0  0  0  0  0  0  0  0  0  0  0
   -5.4210    6.1410   14.2050 C   0  0  0  0  0  0  0  0  0  0  0  0
   -5.7440    5.0800   15.0530 C   0  0  0  0  0  0  0  0  0  0  0  0
   -4.9420    3.9350   15.1140 C   0  0  0  0  0  0  0  0  0  0  0  0
   -3.8140    3.8690   14.3010 C   0  0  0  0  0  0  0  0  0  0  0  0
   -3.4590    4.9280   13.4530 C   0  0  0  0  0  0  0  0  0  0  0  0
   -4.2520    6.0830   13.4150 C   0  0  0  0  0  0  0  0  0  0  0  0
   -1.4030    6.8350   12.1520 O   0  0  0  0  0  0  0  0  0  0  0  0
   -2.9260    7.1030   10.2340 O   0  0  0  0  0  0  0  0  0  0  0  0
   -4.4800    2.8920   17.4420 O   0  0  0  0  0  0  0  0  0  0  0  0
   -6.8170    2.7940   16.4300 O   0  0  0  0  0  0  0  0  0  0  0  0
   -1.9430   13.8990   12.1720 Br  0  0  0  0  0  0  0  0  0  0  0  0
   -2.5790    7.5060   11.6000 S   0  0  0  0  0  0  0  0  0  0  0  0
   -5.3530    2.6570   16.2830 S   0  0  0  0  0  0  0  0  0  0  0  0
   -4.6600    7.9640   12.6010 H   0  0  0  0  0  0  0  0  0  0  0  0
   -4.2970    0.7110   15.9970 H   0  0  0  0  0  0  0  0  0  0  0  0
   -1.4430    9.1480   13.6960 H   0  0  0  0  0  0  0  0  0  0  0  0
   -1.1590   11.5910   13.8940 H   0  0  0  0  0  0  0  0  0  0  0  0
   -3.0870   12.1380   10.0450 H   0  0  0  0  0  0  0  0  0  0  0  0
   -3.3710    9.7030    9.8260 H   0  0  0  0  0  0  0  0  0  0  0  0
   -6.0590    7.0240   14.1760 H   0  0  0  0  0  0  0  0  0  0  0  0
   -6.6400    5.1890   15.6780 H   0  0  0  0  0  0  0  0  0  0  0  0
   -3.1700    2.9850   14.2980 H   0  0  0  0  0  0  0  0  0  0  0  0
   -2.5490    4.8400   12.8560 H   0  0  0  0  0  0  0  0  0  0  0  0
  1 20  1  0  0  0  0
  2 21  1  0  0  0  0
  3  4  2  0  0  0  0
  3  8  1  0  0  0  0
  3 20  1  0  0  0  0
  4  5  1  0  0  0  0
  5  6  2  0  0  0  0
  6  7  1  0  0  0  0
  6 19  1  0  0  0  0
  7  8  2  0  0  0  0
  9 10  2  0  0  0  0
  9 14  1  0  0  0  0
 10 11  1  0  0  0  0
 11 12  2  0  0  0  0
 11 21  1  0  0  0  0
 12 13  1  0  0  0  0
 13 14  2  0  0  0  0
 14  1  1  0  0  0  0
 15 20  2  0  0  0  0
 16 20  2  0  0  0  0
 17 21  2  0  0  0  0
 18 21  2  0  0  0  0
 22  1  1  0  0  0  0
 23  2  1  0  0  0  0
 24  4  1  0  0  0  0
 25  5  1  0  0  0  0
 26  7  1  0  0  0  0
 27  8  1  0  0  0  0
 28  9  1  0  0  0  0
 29 10  1  0  0  0  0
 30 12  1  0  0  0  0
 31 13  1  0  0  0  0
M  CHG  1   2  -1
M  END
>  <deltaG_kcalmol>
-9.1

>  <number_of_rotatable_bonds>
4

>  <charge>
-1

>  <lm5_entropy_jk>
23.26150331504224

$$$$
