3RJC
 OpenBabel11252210453D

 34 36  0  0  0  0  0  0  0  0999 V2000
   65.9420  154.2970  -50.2780 N   0  0  0  0  0  0  0  0  0  0  0  0
   67.0520  153.4700  -50.6190 C   0  0  0  0  0  0  0  0  0  0  0  0
   67.5080  153.4590  -51.9000 N   0  0  0  0  0  0  0  0  0  0  0  0
   67.5560  152.6400  -49.5950 C   0  0  0  0  0  0  0  0  0  0  0  0
   68.5840  151.6480  -49.6870 C   0  0  0  0  0  0  0  0  0  0  0  0
   68.7210  150.7190  -48.5120 C   0  0  0  0  0  0  0  0  0  0  0  0
   67.6340  149.9280  -48.1150 C   0  0  0  0  0  0  0  0  0  0  0  0
   67.7690  149.0560  -47.0320 C   0  0  0  0  0  0  0  0  0  0  0  0
   68.9900  148.9480  -46.3640 C   0  0  0  0  0  0  0  0  0  0  0  0
   70.0750  149.7320  -46.7650 C   0  0  0  0  0  0  0  0  0  0  0  0
   69.9430  150.6250  -47.8340 C   0  0  0  0  0  0  0  0  0  0  0  0
   69.3150  151.5240  -50.6620 O   0  0  0  0  0  0  0  0  0  0  0  0
   66.6250  152.8050  -48.1470 S   0  0  0  0  0  0  0  0  0  0  0  0
   65.5580  154.0150  -49.0090 C   0  0  0  0  0  0  0  0  0  0  0  0
   64.4690  154.6430  -48.4500 N   0  0  0  0  0  0  0  0  0  0  0  0
   63.8460  154.3780  -47.1890 C   0  0  0  0  0  0  0  0  0  0  0  0
   62.9890  155.3990  -46.7130 C   0  0  0  0  0  0  0  0  0  0  0  0
   62.3790  155.2100  -45.4780 C   0  0  0  0  0  0  0  0  0  0  0  0
   62.5680  154.0680  -44.6930 C   0  0  0  0  0  0  0  0  0  0  0  0
   63.3960  153.0670  -45.2030 C   0  0  0  0  0  0  0  0  0  0  0  0
   64.0190  153.2000  -46.4500 C   0  0  0  0  0  0  0  0  0  0  0  0
   61.5780  156.1710  -45.0170 F   0  0  0  0  0  0  0  0  0  0  0  0
   67.1270  154.1110  -52.6140 H   0  0  0  0  0  0  0  0  0  0  0  0
   68.3390  152.9100  -52.1400 H   0  0  0  0  0  0  0  0  0  0  0  0
   66.6750  149.9730  -48.6340 H   0  0  0  0  0  0  0  0  0  0  0  0
   66.9170  148.4640  -46.6940 H   0  0  0  0  0  0  0  0  0  0  0  0
   69.0890  148.2510  -45.5270 H   0  0  0  0  0  0  0  0  0  0  0  0
   71.0120  149.6450  -46.2180 H   0  0  0  0  0  0  0  0  0  0  0  0
   70.7840  151.2550  -48.1310 H   0  0  0  0  0  0  0  0  0  0  0  0
   63.8970  155.2650  -49.0780 H   0  0  0  0  0  0  0  0  0  0  0  0
   62.8070  156.2970  -47.3070 H   0  0  0  0  0  0  0  0  0  0  0  0
   62.0930  153.9510  -43.7170 H   0  0  0  0  0  0  0  0  0  0  0  0
   63.5670  152.1580  -44.6180 H   0  0  0  0  0  0  0  0  0  0  0  0
   64.6010  152.3540  -46.8180 H   0  0  0  0  0  0  0  0  0  0  0  0
  1 14  2  0  0  0  0
  2  1  1  0  0  0  0
  2  4  2  0  0  0  0
  3  2  1  0  0  0  0
  3 23  1  0  0  0  0
  3 24  1  0  0  0  0
  4 13  1  0  0  0  0
  5  4  1  0  0  0  0
  5  6  1  0  0  0  0
  6 11  2  0  0  0  0
  6  7  1  0  0  0  0
  7  8  2  0  0  0  0
  7 25  1  0  0  0  0
  8  9  1  0  0  0  0
  8 26  1  0  0  0  0
  9 27  1  0  0  0  0
 10  9  2  0  0  0  0
 10 28  1  0  0  0  0
 11 10  1  0  0  0  0
 11 29  1  0  0  0  0
 12  5  2  0  0  0  0
 14 15  1  0  0  0  0
 14 13  1  0  0  0  0
 15 16  1  0  0  0  0
 15 30  1  0  0  0  0
 16 17  2  0  0  0  0
 16 21  1  0  0  0  0
 17 18  1  0  0  0  0
 17 31  1  0  0  0  0
 18 22  1  0  0  0  0
 18 19  2  0  0  0  0
 19 32  1  0  0  0  0
 20 19  1  0  0  0  0
 20 33  1  0  0  0  0
 21 20  2  0  0  0  0
 21 34  1  0  0  0  0
M  END
>  <lm5_entropy_jk>
20.581653483104166

>  <number_of_rotatable_bonds>
4

>  <IC50_NM>
5700

>  <charge>
0

$$$$
