4EI4
 OpenBabel11252210453D

 38 41  0  0  1  0  0  0  0  0999 V2000
  -11.4590   29.3510    0.9230 C   0  0  0  0  0  0  0  0  0  0  0  0
  -12.5450   28.3750    0.7070 C   0  0  0  0  0  0  0  0  0  0  0  0
  -12.5060   27.1040    1.1350 N   0  0  0  0  0  0  0  0  0  0  0  0
  -13.6980   26.5090    0.7100 C   0  0  0  0  0  0  0  0  0  0  0  0
  -14.0920   25.1480    0.8780 C   0  0  0  0  0  0  0  0  0  0  0  0
  -15.2500   24.6940    0.4040 N   0  0  0  0  0  0  0  0  0  0  0  0
  -16.0530   25.6240   -0.2400 C   0  0  0  0  0  0  0  0  0  0  0  0
  -15.7680   27.0240   -0.4710 C   0  0  0  0  0  0  0  0  0  0  0  0
  -14.5160   27.4720    0.0130 C   0  0  0  0  0  0  0  0  0  0  0  0
  -13.7600   28.6570   -0.0170 N   0  0  0  0  0  0  0  0  0  0  0  0
  -14.0640   29.9980   -0.5950 C   0  0  2  0  0  0  0  0  0  0  0  0
  -15.2250   30.6770    0.1560 C   0  0  0  0  0  0  0  0  0  0  0  0
  -15.3820   32.1200   -0.3530 C   0  0  0  0  0  0  0  0  0  0  0  0
  -15.6460   32.1420   -1.8660 C   0  0  0  0  0  0  0  0  0  0  0  0
  -14.5520   31.4000   -2.6480 C   0  0  2  0  0  0  0  0  0  0  0  0
  -14.3150   29.9660   -2.1160 C   0  0  0  0  0  0  0  0  0  0  0  0
  -13.3580   32.2080   -2.5030 O   0  0  0  0  0  0  0  0  0  0  0  0
  -16.8980   27.5520   -1.1700 C   0  0  0  0  0  0  0  0  0  0  0  0
  -17.8090   26.5180   -1.3570 C   0  0  0  0  0  0  0  0  0  0  0  0
  -17.2980   25.3300   -0.8060 N   0  0  0  0  0  0  0  0  0  0  0  0
  -13.4330   24.4430    1.4100 H   0  0  0  0  0  0  0  0  0  0  0  0
  -13.1390   30.6280   -0.4370 H   0  0  0  0  0  0  0  0  0  0  0  0
  -16.1720   30.1140   -0.0210 H   0  0  0  0  0  0  0  0  0  0  0  0
  -15.0140   30.6830    1.2500 H   0  0  0  0  0  0  0  0  0  0  0  0
  -16.2330   32.6160    0.1720 H   0  0  0  0  0  0  0  0  0  0  0  0
  -14.4550   32.6990   -0.1360 H   0  0  0  0  0  0  0  0  0  0  0  0
  -15.7190   33.1990   -2.2180 H   0  0  0  0  0  0  0  0  0  0  0  0
  -16.6310   31.6470   -2.0800 H   0  0  0  0  0  0  0  0  0  0  0  0
  -14.8020   31.3620   -3.7350 H   0  0  0  0  0  0  0  0  0  0  0  0
  -13.4470   29.5080   -2.6380 H   0  0  0  0  0  0  0  0  0  0  0  0
  -15.2270   29.3600   -2.3490 H   0  0  0  0  0  0  0  0  0  0  0  0
  -17.0470   28.5590   -1.5130 H   0  0  0  0  0  0  0  0  0  0  0  0
  -18.7610   26.5430   -1.8630 H   0  0  0  0  0  0  0  0  0  0  0  0
  -17.8050   24.4420   -0.7290 H   0  0  0  0  0  0  0  0  0  0  0  0
  -10.7830   28.9990    1.7520 H   0  0  0  0  0  0  0  0  0  0  0  0
  -11.8400   30.3560    1.2210 H   0  0  0  0  0  0  0  0  0  0  0  0
  -10.8430   29.4470   -0.0000 H   0  0  0  0  0  0  0  0  0  0  0  0
  -12.6560   31.8700   -3.1290 H   0  0  0  0  0  0  0  0  0  0  0  0
  1  2  1  0  0  0  0
  2 10  1  0  0  0  0
  2  3  2  0  0  0  0
  4  5  2  0  0  0  0
  4  9  1  0  0  0  0
  4  3  1  0  0  0  0
  5  6  1  0  0  0  0
  7  8  1  0  0  0  0
  7 20  1  0  0  0  0
  7  6  2  0  0  0  0
  8  9  2  0  0  0  0
  9 10  1  0  0  0  0
 11 12  1  0  0  0  0
 11 16  1  0  0  0  0
 11 10  1  0  0  0  0
 11 22  1  1  0  0  0
 12 13  1  0  0  0  0
 13 14  1  0  0  0  0
 14 15  1  0  0  0  0
 15 16  1  0  0  0  0
 15 17  1  0  0  0  0
 15 29  1  6  0  0  0
 18 19  2  0  0  0  0
 18  8  1  0  0  0  0
 19 20  1  0  0  0  0
 21  5  1  0  0  0  0
 23 12  1  0  0  0  0
 24 12  1  0  0  0  0
 25 13  1  0  0  0  0
 26 13  1  0  0  0  0
 27 14  1  0  0  0  0
 28 14  1  0  0  0  0
 30 16  1  0  0  0  0
 31 16  1  0  0  0  0
 32 18  1  0  0  0  0
 33 19  1  0  0  0  0
 34 20  1  0  0  0  0
 35  1  1  0  0  0  0
 36  1  1  0  0  0  0
 37  1  1  0  0  0  0
 38 17  1  0  0  0  0
M  END
>  <charge>
0

>  <pKi>
8.74

>  <number_of_rotatable_bonds>
1

>  <lm5_entropy_jk>
22.786904138289753

$$$$
