2ZHD
 OpenBabel11252210453D

 64 66  0  0  1  0  0  0  0  0999 V2000
    2.5730   20.4920   18.2970 N   0  0  0  0  0  0  0  0  0  0  0  0
   -1.6240   12.4350   14.9470 N   0  3  0  0  0  0  0  0  0  0  0  0
   -2.6970   14.2590   13.9950 N   0  0  0  0  0  0  0  0  0  0  0  0
    3.7690   21.1200   15.2000 N   0  3  0  0  0  0  0  0  0  0  0  0
    0.7410   17.5220   19.5430 N   0  0  0  0  0  0  0  0  0  0  0  0
    2.3700   19.3230   19.2060 C   0  0  1  0  0  0  0  0  0  0  0  0
    2.9120   19.7590   20.5880 C   0  0  0  0  0  0  0  0  0  0  0  0
    3.2470   21.2590   20.4990 C   0  0  0  0  0  0  0  0  0  0  0  0
    3.1760   21.6620   19.0150 C   0  0  0  0  0  0  0  0  0  0  0  0
    2.6210   21.6280   16.0690 C   0  0  0  0  0  0  0  0  0  0  0  0
    0.8920   18.8950   19.3260 C   0  0  0  0  0  0  0  0  0  0  0  0
   -1.9970   13.7400   15.0450 C   0  0  0  0  0  0  0  0  0  0  0  0
    2.0990   20.5150   17.0000 C   0  0  0  0  0  0  0  0  0  0  0  0
   -0.5910   16.9000   19.7090 C   0  0  0  0  0  0  0  0  0  0  0  0
   -0.9540   16.0930   18.4820 C   0  0  0  0  0  0  0  0  0  0  0  0
   -0.7950   14.6980   18.4960 C   0  0  0  0  0  0  0  0  0  0  0  0
   -1.1300   13.9370   17.3820 C   0  0  0  0  0  0  0  0  0  0  0  0
   -1.6150   14.5580   16.2110 C   0  0  0  0  0  0  0  0  0  0  0  0
   -1.7700   15.9590   16.2030 C   0  0  0  0  0  0  0  0  0  0  0  0
   -1.4530   16.7150   17.3290 C   0  0  0  0  0  0  0  0  0  0  0  0
    7.2220   20.9180   12.8010 C   0  0  0  0  0  0  0  0  0  0  0  0
    6.5060   20.2630   13.9970 C   0  0  0  0  0  0  0  0  0  0  0  0
    6.3020   21.2070   15.1890 C   0  0  0  0  0  0  0  0  0  0  0  0
    5.0210   22.0570   15.2020 C   0  0  0  0  0  0  0  0  0  0  0  0
    4.8930   23.0820   14.0670 C   0  0  0  0  0  0  0  0  0  0  0  0
    5.2870   22.6130   12.6550 C   0  0  0  0  0  0  0  0  0  0  0  0
    6.7960   22.3640   12.5150 C   0  0  0  0  0  0  0  0  0  0  0  0
   -0.0570   19.6560   19.3300 O   0  0  0  0  0  0  0  0  0  0  0  0
    1.3580   19.6380   16.5740 O   0  0  0  0  0  0  0  0  0  0  0  0
    2.9840   18.4780   18.7900 H   0  0  0  0  0  0  0  0  0  0  0  0
    3.8320   19.1730   20.8270 H   0  0  0  0  0  0  0  0  0  0  0  0
    2.1600   19.5810   21.3930 H   0  0  0  0  0  0  0  0  0  0  0  0
    2.5190   21.8660   21.0930 H   0  0  0  0  0  0  0  0  0  0  0  0
    4.2710   21.4660   20.8990 H   0  0  0  0  0  0  0  0  0  0  0  0
    2.5400   22.5760   18.8790 H   0  0  0  0  0  0  0  0  0  0  0  0
    4.2010   21.8550   18.6010 H   0  0  0  0  0  0  0  0  0  0  0  0
    1.7700   21.9760   15.4030 H   0  0  0  0  0  0  0  0  0  0  0  0
    2.9410   22.5560   16.6280 H   0  0  0  0  0  0  0  0  0  0  0  0
    4.0640   20.1680   15.5330 H   0  0  0  0  0  0  0  0  0  0  0  0
    3.4140   21.0550   14.2030 H   0  0  0  0  0  0  0  0  0  0  0  0
    1.5270   16.8540   19.4660 H   0  0  0  0  0  0  0  0  0  0  0  0
   -0.5460   16.2290   20.6150 H   0  0  0  0  0  0  0  0  0  0  0  0
   -1.3750   17.6930   19.8840 H   0  0  0  0  0  0  0  0  0  0  0  0
   -0.4170   14.2030   19.3970 H   0  0  0  0  0  0  0  0  0  0  0  0
   -1.0210   12.8520   17.4450 H   0  0  0  0  0  0  0  0  0  0  0  0
   -2.1440   16.4870   15.3220 H   0  0  0  0  0  0  0  0  0  0  0  0
   -1.6100   17.8020   17.3010 H   0  0  0  0  0  0  0  0  0  0  0  0
    8.3210   20.9250   13.0050 H   0  0  0  0  0  0  0  0  0  0  0  0
    7.0310   20.2700   11.9150 H   0  0  0  0  0  0  0  0  0  0  0  0
    7.1270   19.3920   14.3370 H   0  0  0  0  0  0  0  0  0  0  0  0
    5.5330   19.8520   13.6460 H   0  0  0  0  0  0  0  0  0  0  0  0
    7.1520   21.9490   15.2030 H   0  0  0  0  0  0  0  0  0  0  0  0
    6.3610   20.6300   16.1380 H   0  0  0  0  0  0  0  0  0  0  0  0
    4.9990   22.6250   16.1800 H   0  0  0  0  0  0  0  0  0  0  0  0
    3.8460   23.4800   14.0490 H   0  0  0  0  0  0  0  0  0  0  0  0
    5.5560   23.9470   14.3480 H   0  0  0  0  0  0  0  0  0  0  0  0
    4.7150   21.6950   12.4000 H   0  0  0  0  0  0  0  0  0  0  0  0
    4.9830   23.4300   11.9510 H   0  0  0  0  0  0  0  0  0  0  0  0
    7.3310   23.0400   13.2320 H   0  0  0  0  0  0  0  0  0  0  0  0
    7.1350   22.6560   11.4930 H   0  0  0  0  0  0  0  0  0  0  0  0
   -3.0820   15.2230   14.0080 H   0  0  0  0  0  0  0  0  0  0  0  0
   -3.0700   13.6130   13.2530 H   0  0  0  0  0  0  0  0  0  0  0  0
   -0.9920   11.9850   15.6410 H   0  0  0  0  0  0  0  0  0  0  0  0
   -2.0670   11.7970   14.2450 H   0  0  0  0  0  0  0  0  0  0  0  0
  1  6  1  0  0  0  0
  1  9  1  0  0  0  0
  1 13  1  0  0  0  0
  2 12  2  0  0  0  0
  2 63  1  0  0  0  0
  2 64  1  0  0  0  0
  3 12  1  0  0  0  0
  3 61  1  0  0  0  0
  3 62  1  0  0  0  0
  4 10  1  0  0  0  0
  4 24  1  0  0  0  0
  4 39  1  0  0  0  0
  4 40  1  0  0  0  0
  5 11  1  0  0  0  0
  5 14  1  0  0  0  0
  5 41  1  0  0  0  0
  6  7  1  0  0  0  0
  6 11  1  0  0  0  0
  6 30  1  6  0  0  0
  7  8  1  0  0  0  0
  7 31  1  0  0  0  0
  7 32  1  0  0  0  0
  8  9  1  0  0  0  0
  8 33  1  0  0  0  0
  8 34  1  0  0  0  0
  9 35  1  0  0  0  0
  9 36  1  0  0  0  0
 10 13  1  0  0  0  0
 10 37  1  0  0  0  0
 10 38  1  0  0  0  0
 11 28  2  0  0  0  0
 12 18  1  0  0  0  0
 13 29  2  0  0  0  0
 14 15  1  0  0  0  0
 14 42  1  0  0  0  0
 14 43  1  0  0  0  0
 15 16  2  0  0  0  0
 15 20  1  0  0  0  0
 16 17  1  0  0  0  0
 16 44  1  0  0  0  0
 17 18  2  0  0  0  0
 17 45  1  0  0  0  0
 18 19  1  0  0  0  0
 19 20  2  0  0  0  0
 19 46  1  0  0  0  0
 20 47  1  0  0  0  0
 21 22  1  0  0  0  0
 21 27  1  0  0  0  0
 21 48  1  0  0  0  0
 21 49  1  0  0  0  0
 22 23  1  0  0  0  0
 22 50  1  0  0  0  0
 22 51  1  0  0  0  0
 23 24  1  0  0  0  0
 23 52  1  0  0  0  0
 23 53  1  0  0  0  0
 24 25  1  0  0  0  0
 24 54  1  0  0  0  0
 25 26  1  0  0  0  0
 25 55  1  0  0  0  0
 25 56  1  0  0  0  0
 26 27  1  0  0  0  0
 26 57  1  0  0  0  0
 26 58  1  0  0  0  0
 27 59  1  0  0  0  0
 27 60  1  0  0  0  0
M  CHG  2   2   1   4   1
M  END
>  <number_of_rotatable_bonds>
9

>  <lm5_entropy_jk>
23.69757746385818

>  <deltaG_kcalmol>
-8.93

>  <charge>
2

$$$$
