3qxp.pdb
 OpenBabel11252210453D

 41 43  0  0  0  0  0  0  0  0999 V2000
   65.9860  154.3790  -50.4650 N   0  0  0  0  0  0  0  0  0  0  0  0
   64.6560  154.8830  -48.5630 N   0  0  0  0  0  0  0  0  0  0  0  0
   67.4910  153.4770  -52.1070 N   0  0  0  0  0  0  0  0  0  0  0  0
   62.1320  152.7680  -42.6740 N   0  0  0  0  0  0  0  0  0  0  0  0
   71.0630  150.7100  -49.1080 N   0  3  0  0  0  0  0  0  0  0  0  0
   67.5570  152.6650  -49.8060 C   0  0  0  0  0  0  0  0  0  0  0  0
   67.0560  153.5050  -50.8270 C   0  0  0  0  0  0  0  0  0  0  0  0
   65.6790  154.1750  -49.1660 C   0  0  0  0  0  0  0  0  0  0  0  0
   63.9630  154.5570  -47.3580 C   0  0  0  0  0  0  0  0  0  0  0  0
   68.4060  151.5330  -49.9780 C   0  0  0  0  0  0  0  0  0  0  0  0
   68.5870  150.6190  -48.7830 C   0  0  0  0  0  0  0  0  0  0  0  0
   69.8670  150.2050  -48.3790 C   0  0  0  0  0  0  0  0  0  0  0  0
   70.0480  149.3390  -47.2940 C   0  0  0  0  0  0  0  0  0  0  0  0
   68.9300  148.8970  -46.5830 C   0  0  0  0  0  0  0  0  0  0  0  0
   67.6500  149.2900  -46.9760 C   0  0  0  0  0  0  0  0  0  0  0  0
   67.4790  150.1270  -48.0860 C   0  0  0  0  0  0  0  0  0  0  0  0
   64.1270  153.3730  -46.6260 C   0  0  0  0  0  0  0  0  0  0  0  0
   63.3610  153.1650  -45.4750 C   0  0  0  0  0  0  0  0  0  0  0  0
   62.4140  154.1060  -45.0590 C   0  0  0  0  0  0  0  0  0  0  0  0
   62.2630  155.2960  -45.7860 C   0  0  0  0  0  0  0  0  0  0  0  0
   63.0270  155.5260  -46.9230 C   0  0  0  0  0  0  0  0  0  0  0  0
   68.9680  151.2570  -51.0310 O   0  0  0  0  0  0  0  0  0  0  0  0
   60.1750  153.0780  -44.3830 O   0  0  0  0  0  0  0  0  0  0  0  0
   60.9780  154.9800  -43.0060 O   0  0  0  0  0  0  0  0  0  0  0  0
   71.9030  149.8940  -49.4470 O   0  5  0  0  0  0  0  0  0  0  0  0
   71.1360  151.9100  -49.2900 O   0  0  0  0  0  0  0  0  0  0  0  0
   66.7880  153.0080  -48.2980 S   0  0  0  0  0  0  0  0  0  0  0  0
   61.3140  153.7710  -43.7750 S   0  0  0  0  0  0  0  0  0  0  0  0
   64.0860  155.5060  -49.1970 H   0  0  0  0  0  0  0  0  0  0  0  0
   67.0920  154.1130  -52.8240 H   0  0  0  0  0  0  0  0  0  0  0  0
   68.2430  152.8320  -52.3780 H   0  0  0  0  0  0  0  0  0  0  0  0
   62.2330  151.7540  -42.9640 H   0  0  0  0  0  0  0  0  0  0  0  0
   61.9490  152.8470  -41.6650 H   0  0  0  0  0  0  0  0  0  0  0  0
   71.0330  148.9860  -46.9840 H   0  0  0  0  0  0  0  0  0  0  0  0
   69.0490  148.2330  -45.7210 H   0  0  0  0  0  0  0  0  0  0  0  0
   66.7780  148.9520  -46.4100 H   0  0  0  0  0  0  0  0  0  0  0  0
   66.4580  150.3730  -48.3800 H   0  0  0  0  0  0  0  0  0  0  0  0
   64.8110  152.5780  -46.9260 H   0  0  0  0  0  0  0  0  0  0  0  0
   63.5290  152.2380  -44.9160 H   0  0  0  0  0  0  0  0  0  0  0  0
   61.5380  156.0650  -45.4850 H   0  0  0  0  0  0  0  0  0  0  0  0
   62.8820  156.4460  -47.4910 H   0  0  0  0  0  0  0  0  0  0  0  0
  1  8  2  0  0  0  0
  2  9  1  0  0  0  0
  2 29  1  0  0  0  0
  3  7  1  0  0  0  0
  3 30  1  0  0  0  0
  3 31  1  0  0  0  0
  4 32  1  0  0  0  0
  4 33  1  0  0  0  0
  5 12  1  0  0  0  0
  6 27  1  0  0  0  0
  7  1  1  0  0  0  0
  7  6  2  0  0  0  0
  8  2  1  0  0  0  0
  8 27  1  0  0  0  0
  9 21  2  0  0  0  0
  9 17  1  0  0  0  0
 10  6  1  0  0  0  0
 10 11  1  0  0  0  0
 11 16  2  0  0  0  0
 11 12  1  0  0  0  0
 12 13  2  0  0  0  0
 13 14  1  0  0  0  0
 13 34  1  0  0  0  0
 14 35  1  0  0  0  0
 15 14  2  0  0  0  0
 15 36  1  0  0  0  0
 16 15  1  0  0  0  0
 16 37  1  0  0  0  0
 17 18  2  0  0  0  0
 17 38  1  0  0  0  0
 18 19  1  0  0  0  0
 18 39  1  0  0  0  0
 19 28  1  0  0  0  0
 20 19  2  0  0  0  0
 20 40  1  0  0  0  0
 21 20  1  0  0  0  0
 21 41  1  0  0  0  0
 22 10  2  0  0  0  0
 23 28  2  0  0  0  0
 25  5  1  0  0  0  0
 26  5  2  0  0  0  0
 28 24  2  0  0  0  0
 28  4  1  0  0  0  0
M  CHG  2   5   1  25  -1
M  END
>  <lm5_entropy_jk>
23.933690845995674

>  <number_of_rotatable_bonds>
6

>  <IC50_NM>
20

>  <charge>
0

$$$$
