22a-chB.pdb
 OpenBabel11252210453D

 88 92  0  0  1  0  0  0  0  0999 V2000
    1.9580    2.2900   11.4900 C   0  0  0  0  0  0  0  0  0  0  0  0
    2.6870    1.1200   11.7400 O   0  0  0  0  0  0  0  0  0  0  0  0
    2.6650    3.4640   11.1570 C   0  0  0  0  0  0  0  0  0  0  0  0
    5.2840    0.1020   16.8880 O   0  0  0  0  0  0  0  0  0  0  0  0
    4.1000   -1.1850   12.4880 O   0  0  0  0  0  0  0  0  0  0  0  0
    1.9350    4.5280   10.6060 C   0  0  0  0  0  0  0  0  0  0  0  0
    4.8220   -0.0130   14.3220 N   0  0  0  0  0  0  0  0  0  0  0  0
    0.5480    4.4450   10.4620 C   0  0  0  0  0  0  0  0  0  0  0  0
    3.3950   -5.7670   17.0370 C   0  0  0  0  0  0  0  0  0  0  0  0
    5.9420   -4.0920   16.7500 N   0  0  0  0  0  0  0  0  0  0  0  0
   -0.1400    3.3140   10.9020 C   0  0  0  0  0  0  0  0  0  0  0  0
    4.1260   -6.7700   17.6920 C   0  0  0  0  0  0  0  0  0  0  0  0
    6.5460   -4.0630   14.5520 O   0  0  0  0  0  0  0  0  0  0  0  0
    0.5530    2.2140   11.4310 C   0  0  0  0  0  0  0  0  0  0  0  0
    3.9340   -8.1120   17.3550 C   0  0  0  0  0  0  0  0  0  0  0  0
   -0.1950    1.0150   11.9060 C   0  0  0  0  0  0  0  0  0  0  0  0
    3.0000   -8.4660   16.3780 C   0  0  0  0  0  0  0  0  0  0  0  0
    4.1360    3.5810   11.3620 C   0  0  0  0  0  0  0  0  0  0  0  0
    2.2760   -7.4670   15.7190 C   0  0  0  0  0  0  0  0  0  0  0  0
    2.4810   -6.1230   16.0340 C   0  0  0  0  0  0  0  0  0  0  0  0
    2.9270    0.8820   13.1450 C   0  0  0  0  0  0  0  0  0  0  0  0
    3.9980   -0.2160   13.2160 C   0  0  0  0  0  0  0  0  0  0  0  0
    5.8560   -0.9580   14.7790 C   0  0  1  0  0  0  0  0  0  0  0  0
    8.1200   -0.2730   10.7980 C   0  0  0  0  0  0  0  0  0  0  0  0
    7.8230    1.0560   10.4810 C   0  0  0  0  0  0  0  0  0  0  0  0
    7.3690    1.9190   11.4830 C   0  0  0  0  0  0  0  0  0  0  0  0
    7.1890    1.4480   12.7860 C   0  0  0  0  0  0  0  0  0  0  0  0
    7.4680    0.1090   13.1060 C   0  0  0  0  0  0  0  0  0  0  0  0
    7.9490   -0.7460   12.1020 C   0  0  0  0  0  0  0  0  0  0  0  0
    7.2740   -0.3830   14.5160 C   0  0  0  0  0  0  0  0  0  0  0  0
    5.6260   -1.1900   16.3090 C   0  0  2  0  0  0  0  0  0  0  0  0
    4.4270   -2.0670   16.6940 C   0  0  0  0  0  0  0  0  0  0  0  0
    4.5640   -3.5870   16.4840 C   0  0  2  0  0  0  0  0  0  0  0  0
    6.8040   -4.3720   15.7080 C   0  0  0  0  0  0  0  0  0  0  0  0
    8.1120   -5.1220   16.0280 C   0  0  1  0  0  0  0  0  0  0  0  0
    8.6760   -4.6470   17.2890 O   0  0  0  0  0  0  0  0  0  0  0  0
    3.5710   -4.3240   17.4180 C   0  0  0  0  0  0  0  0  0  0  0  0
    9.0780   -5.7310   18.0890 C   0  0  0  0  0  0  0  0  0  0  0  0
    9.6590   -5.5420   19.1220 O   0  0  0  0  0  0  0  0  0  0  0  0
    8.5960   -6.9180   17.5080 N   0  0  0  0  0  0  0  0  0  0  0  0
    7.9040   -6.6430   16.2140 C   0  0  0  0  0  0  0  0  0  0  0  0
    9.0240   -8.2440   17.8640 C   0  0  0  0  0  0  0  0  0  0  0  0
    8.1250   -9.3130   17.7170 C   0  0  0  0  0  0  0  0  0  0  0  0
    8.5220  -10.5960   18.0970 C   0  0  0  0  0  0  0  0  0  0  0  0
    9.7930  -10.8140   18.6350 C   0  0  0  0  0  0  0  0  0  0  0  0
   10.6790   -9.7430   18.7870 C   0  0  0  0  0  0  0  0  0  0  0  0
   10.3110   -8.4560   18.3890 C   0  0  0  0  0  0  0  0  0  0  0  0
   -0.1850    0.9760   13.0220 H   0  0  0  0  0  0  0  0  0  0  0  0
    0.2460    0.0770   11.4990 H   0  0  0  0  0  0  0  0  0  0  0  0
    4.6840    3.0430   10.5480 H   0  0  0  0  0  0  0  0  0  0  0  0
    2.4580    5.4200   10.2520 H   0  0  0  0  0  0  0  0  0  0  0  0
   -0.0000    5.2640    9.9900 H   0  0  0  0  0  0  0  0  0  0  0  0
    4.8190    0.8810   14.8450 H   0  0  0  0  0  0  0  0  0  0  0  0
    6.1910   -4.2560   17.7250 H   0  0  0  0  0  0  0  0  0  0  0  0
    4.2450   -1.8720   17.7830 H   0  0  0  0  0  0  0  0  0  0  0  0
    4.8410   -6.5080   18.4730 H   0  0  0  0  0  0  0  0  0  0  0  0
    4.5190   -8.8880   17.8570 H   0  0  0  0  0  0  0  0  0  0  0  0
    2.8460   -9.5190   16.1300 H   0  0  0  0  0  0  0  0  0  0  0  0
    1.5570   -7.7330   14.9500 H   0  0  0  0  0  0  0  0  0  0  0  0
    1.9120   -5.3530   15.5120 H   0  0  0  0  0  0  0  0  0  0  0  0
    1.9880    0.5290   13.6270 H   0  0  0  0  0  0  0  0  0  0  0  0
    5.7620   -1.9420   14.2460 H   0  0  0  0  0  0  0  0  0  0  0  0
    3.2960    1.8180   13.6180 H   0  0  0  0  0  0  0  0  0  0  0  0
   -1.2260    3.2640   10.8200 H   0  0  0  0  0  0  0  0  0  0  0  0
   -1.2660    1.0690   11.5880 H   0  0  0  0  0  0  0  0  0  0  0  0
    4.4490    3.1470   12.3420 H   0  0  0  0  0  0  0  0  0  0  0  0
    4.4700    4.6480   11.3400 H   0  0  0  0  0  0  0  0  0  0  0  0
    6.1640    0.4680   17.2730 H   0  0  0  0  0  0  0  0  0  0  0  0
    8.5030   -0.9370   10.0240 H   0  0  0  0  0  0  0  0  0  0  0  0
    7.9570    1.4280    9.4640 H   0  0  0  0  0  0  0  0  0  0  0  0
    7.1660    2.9690   11.2550 H   0  0  0  0  0  0  0  0  0  0  0  0
    6.8440    2.1360   13.5610 H   0  0  0  0  0  0  0  0  0  0  0  0
    8.2160   -1.7700   12.3500 H   0  0  0  0  0  0  0  0  0  0  0  0
    8.0270   -1.1650   14.7720 H   0  0  0  0  0  0  0  0  0  0  0  0
    7.4500    0.4740   15.2180 H   0  0  0  0  0  0  0  0  0  0  0  0
    6.5610   -1.5480   16.7960 H   0  0  0  0  0  0  0  0  0  0  0  0
    3.5150   -1.7180   16.1490 H   0  0  0  0  0  0  0  0  0  0  0  0
    4.3080   -3.8360   15.4170 H   0  0  0  0  0  0  0  0  0  0  0  0
    8.8840   -4.8760   15.2560 H   0  0  0  0  0  0  0  0  0  0  0  0
    3.9140   -4.2540   18.4820 H   0  0  0  0  0  0  0  0  0  0  0  0
    2.5790   -3.8050   17.3720 H   0  0  0  0  0  0  0  0  0  0  0  0
    8.3480   -7.2400   15.3790 H   0  0  0  0  0  0  0  0  0  0  0  0
    6.8170   -6.9160   16.3160 H   0  0  0  0  0  0  0  0  0  0  0  0
    7.1160   -9.1550   17.3310 H   0  0  0  0  0  0  0  0  0  0  0  0
    7.8240  -11.4320   17.9840 H   0  0  0  0  0  0  0  0  0  0  0  0
   10.0920  -11.8220   18.9390 H   0  0  0  0  0  0  0  0  0  0  0  0
   11.6710   -9.9140   19.2140 H   0  0  0  0  0  0  0  0  0  0  0  0
   11.0270   -7.6380   18.4860 H   0  0  0  0  0  0  0  0  0  0  0  0
  1  3  1  0  0  0  0
  1  2  1  0  0  0  0
  2 21  1  0  0  0  0
  3 18  1  0  0  0  0
  4 68  1  0  0  0  0
  5 22  2  0  0  0  0
  6 51  1  0  0  0  0
  6  3  2  0  0  0  0
  7 23  1  0  0  0  0
  7 53  1  0  0  0  0
  8  6  1  0  0  0  0
  9 37  1  0  0  0  0
  9 12  1  0  0  0  0
 10 54  1  0  0  0  0
 11  8  2  0  0  0  0
 11 14  1  0  0  0  0
 12 56  1  0  0  0  0
 13 34  2  0  0  0  0
 14  1  2  0  0  0  0
 15 12  2  0  0  0  0
 15 57  1  0  0  0  0
 16 14  1  0  0  0  0
 16 48  1  0  0  0  0
 17 15  1  0  0  0  0
 18 67  1  0  0  0  0
 18 66  1  0  0  0  0
 19 20  1  0  0  0  0
 19 17  2  0  0  0  0
 20  9  2  0  0  0  0
 21 63  1  0  0  0  0
 21 22  1  0  0  0  0
 21 61  1  0  0  0  0
 22  7  1  0  0  0  0
 23 62  1  6  0  0  0
 23 31  1  0  0  0  0
 24 29  1  0  0  0  0
 25 24  2  0  0  0  0
 25 26  1  0  0  0  0
 26 27  2  0  0  0  0
 27 28  1  0  0  0  0
 27 72  1  0  0  0  0
 28 30  1  0  0  0  0
 29 73  1  0  0  0  0
 29 28  2  0  0  0  0
 30 74  1  0  0  0  0
 30 23  1  0  0  0  0
 30 75  1  0  0  0  0
 31 76  1  1  0  0  0
 31  4  1  0  0  0  0
 31 32  1  0  0  0  0
 32 55  1  0  0  0  0
 33 78  1  6  0  0  0
 33 32  1  0  0  0  0
 33 10  1  0  0  0  0
 33 37  1  0  0  0  0
 34 35  1  0  0  0  0
 34 10  1  0  0  0  0
 35 79  1  6  0  0  0
 35 36  1  0  0  0  0
 36 38  1  0  0  0  0
 37 80  1  0  0  0  0
 38 39  2  0  0  0  0
 40 42  1  0  0  0  0
 40 38  1  0  0  0  0
 41 35  1  0  0  0  0
 41 83  1  0  0  0  0
 41 40  1  0  0  0  0
 42 47  1  0  0  0  0
 43 42  2  0  0  0  0
 43 44  1  0  0  0  0
 44 45  2  0  0  0  0
 45 46  1  0  0  0  0
 45 86  1  0  0  0  0
 46 87  1  0  0  0  0
 47 88  1  0  0  0  0
 47 46  2  0  0  0  0
 49 16  1  0  0  0  0
 50 18  1  0  0  0  0
 52  8  1  0  0  0  0
 58 17  1  0  0  0  0
 59 19  1  0  0  0  0
 60 20  1  0  0  0  0
 64 11  1  0  0  0  0
 65 16  1  0  0  0  0
 69 24  1  0  0  0  0
 70 25  1  0  0  0  0
 71 26  1  0  0  0  0
 77 32  1  0  0  0  0
 81 37  1  0  0  0  0
 82 41  1  0  0  0  0
 84 43  1  0  0  0  0
 85 44  1  0  0  0  0
M  END
>  <charge>
0

>  <KI_NM>
7.28

>  <number_of_rotatable_bonds>
16

>  <lm5_entropy_jk>
39.45594585765423

>  <ligand_crystal_conformation>
B

$$$$
