3qtz.pdb
 OpenBabel11252210453D

 39 41  0  0  0  0  0  0  0  0999 V2000
   66.0690  154.2610  -50.3800 N   0  0  0  0  0  0  0  0  0  0  0  0
   64.6420  154.7260  -48.5460 N   0  0  0  0  0  0  0  0  0  0  0  0
   67.6260  153.3950  -51.9820 N   0  0  0  0  0  0  0  0  0  0  0  0
   62.0580  152.7590  -42.6250 N   0  0  0  0  0  0  0  0  0  0  0  0
   67.6670  152.6000  -49.6630 C   0  0  0  0  0  0  0  0  0  0  0  0
   67.1730  153.4140  -50.7030 C   0  0  0  0  0  0  0  0  0  0  0  0
   65.7050  154.0370  -49.0980 C   0  0  0  0  0  0  0  0  0  0  0  0
   63.9500  154.4460  -47.3310 C   0  0  0  0  0  0  0  0  0  0  0  0
   68.6580  151.5670  -49.7380 C   0  0  0  0  0  0  0  0  0  0  0  0
   68.7790  150.6560  -48.5410 C   0  0  0  0  0  0  0  0  0  0  0  0
   67.6540  149.9680  -48.0660 C   0  0  0  0  0  0  0  0  0  0  0  0
   67.7630  149.1080  -46.9690 C   0  0  0  0  0  0  0  0  0  0  0  0
   68.9990  148.8950  -46.3530 C   0  0  0  0  0  0  0  0  0  0  0  0
   70.1040  149.5780  -46.8610 C   0  0  0  0  0  0  0  0  0  0  0  0
   70.0280  150.4720  -47.9370 C   0  0  0  0  0  0  0  0  0  0  0  0
   63.0120  155.4270  -46.9300 C   0  0  0  0  0  0  0  0  0  0  0  0
   62.2410  155.2320  -45.7920 C   0  0  0  0  0  0  0  0  0  0  0  0
   62.3920  154.0670  -45.0250 C   0  0  0  0  0  0  0  0  0  0  0  0
   63.3490  153.1190  -45.4020 C   0  0  0  0  0  0  0  0  0  0  0  0
   64.1170  153.2880  -46.5570 C   0  0  0  0  0  0  0  0  0  0  0  0
   69.3700  151.3890  -50.7180 O   0  0  0  0  0  0  0  0  0  0  0  0
   60.1350  153.0790  -44.3690 O   0  0  0  0  0  0  0  0  0  0  0  0
   60.9470  154.9860  -43.0010 O   0  0  0  0  0  0  0  0  0  0  0  0
   66.7700  152.8510  -48.2050 S   0  0  0  0  0  0  0  0  0  0  0  0
   61.2730  153.7620  -43.7510 S   0  0  0  0  0  0  0  0  0  0  0  0
   71.2860  149.3710  -46.2790 F   0  0  0  0  0  0  0  0  0  0  0  0
   64.0900  155.3430  -49.1980 H   0  0  0  0  0  0  0  0  0  0  0  0
   67.2330  154.0400  -52.6960 H   0  0  0  0  0  0  0  0  0  0  0  0
   68.4410  152.8240  -52.2250 H   0  0  0  0  0  0  0  0  0  0  0  0
   62.1680  151.7450  -42.9160 H   0  0  0  0  0  0  0  0  0  0  0  0
   61.8340  152.8310  -41.6230 H   0  0  0  0  0  0  0  0  0  0  0  0
   66.6750  150.0830  -48.5340 H   0  0  0  0  0  0  0  0  0  0  0  0
   66.8760  148.6040  -46.5780 H   0  0  0  0  0  0  0  0  0  0  0  0
   69.0750  148.2070  -45.5060 H   0  0  0  0  0  0  0  0  0  0  0  0
   70.9050  151.0150  -48.2930 H   0  0  0  0  0  0  0  0  0  0  0  0
   62.8700  156.3290  -47.5270 H   0  0  0  0  0  0  0  0  0  0  0  0
   61.5110  156.0070  -45.5210 H   0  0  0  0  0  0  0  0  0  0  0  0
   63.5240  152.2150  -44.8070 H   0  0  0  0  0  0  0  0  0  0  0  0
   64.8000  152.4830  -46.8310 H   0  0  0  0  0  0  0  0  0  0  0  0
  1  7  2  0  0  0  0
  2  8  1  0  0  0  0
  2 27  1  0  0  0  0
  3  6  1  0  0  0  0
  3 28  1  0  0  0  0
  3 29  1  0  0  0  0
  4 30  1  0  0  0  0
  4 31  1  0  0  0  0
  5 24  1  0  0  0  0
  6  1  1  0  0  0  0
  6  5  2  0  0  0  0
  7  2  1  0  0  0  0
  7 24  1  0  0  0  0
  8 16  2  0  0  0  0
  8 20  1  0  0  0  0
  9  5  1  0  0  0  0
  9 10  1  0  0  0  0
 10 15  2  0  0  0  0
 10 11  1  0  0  0  0
 11 12  2  0  0  0  0
 11 32  1  0  0  0  0
 12 13  1  0  0  0  0
 12 33  1  0  0  0  0
 13 34  1  0  0  0  0
 14 26  1  0  0  0  0
 14 13  2  0  0  0  0
 15 14  1  0  0  0  0
 15 35  1  0  0  0  0
 16 17  1  0  0  0  0
 16 36  1  0  0  0  0
 17 18  2  0  0  0  0
 17 37  1  0  0  0  0
 18 25  1  0  0  0  0
 19 18  1  0  0  0  0
 19 38  1  0  0  0  0
 20 19  2  0  0  0  0
 20 39  1  0  0  0  0
 21  9  2  0  0  0  0
 22 25  2  0  0  0  0
 25 23  2  0  0  0  0
 25  4  1  0  0  0  0
M  END
>  <lm5_entropy_jk>
22.397995528352578

>  <number_of_rotatable_bonds>
5

>  <IC50_NM>
50

>  <charge>
0

$$$$
