3F18
 OpenBabel11252210453D

 32 32  0  0  0  0  0  0  0  0999 V2000
    5.5400   25.5660    4.4650 C   0  0  0  0  0  0  0  0  0  0  0  0
    8.5870   23.8360    1.4040 N   0  0  0  0  0  0  0  0  0  0  0  0
    5.6900   29.3330    0.9200 O   0  0  0  0  0  0  0  0  0  0  0  0
    7.9140   26.7450    3.9130 S   0  0  0  0  0  0  0  0  0  0  0  0
    4.7460   24.4950    4.8760 C   0  0  0  0  0  0  0  0  0  0  0  0
    7.7650   27.0820    2.2030 N   0  0  0  0  0  0  0  0  0  0  0  0
    8.0800   22.6680    0.7960 O   0  0  0  0  0  0  0  0  0  0  0  0
    6.9020   25.3790    4.1830 C   0  0  0  0  0  0  0  0  0  0  0  0
    6.8790   24.8560    0.2890 O   0  0  0  0  0  0  0  0  0  0  0  0
    5.3460   23.2360    4.9720 C   0  0  0  0  0  0  0  0  0  0  0  0
    9.2920   26.3880    4.2300 O   0  0  0  0  0  0  0  0  0  0  0  0
    7.4510   24.0870    4.2110 C   0  0  0  0  0  0  0  0  0  0  0  0
    7.3500   27.9020    4.6020 O   0  0  0  0  0  0  0  0  0  0  0  0
    7.0150   28.8850    0.6110 C   0  0  0  0  0  0  0  0  0  0  0  0
    6.6680   22.9950    4.5900 C   0  0  0  0  0  0  0  0  0  0  0  0
    7.8270   28.5430    1.8740 C   0  0  0  0  0  0  0  0  0  0  0  0
    7.9270   24.9990    0.8920 C   0  0  0  0  0  0  0  0  0  0  0  0
    8.6530   26.2750    1.3250 C   0  0  0  0  0  0  0  0  0  0  0  0
    4.6240   22.2310    5.4610 F   0  0  0  0  0  0  0  0  0  0  0  0
    5.0830   26.5580    4.3810 H   0  0  0  0  0  0  0  0  0  0  0  0
    9.6320   23.7720    1.4390 H   0  0  0  0  0  0  0  0  0  0  0  0
    5.2550   28.6940    1.5660 H   0  0  0  0  0  0  0  0  0  0  0  0
    3.6880   24.6410    5.1080 H   0  0  0  0  0  0  0  0  0  0  0  0
    8.3260   21.9170    1.5440 H   0  0  0  0  0  0  0  0  0  0  0  0
    8.5020   23.9110    3.9400 H   0  0  0  0  0  0  0  0  0  0  0  0
    6.9520   28.0190   -0.0790 H   0  0  0  0  0  0  0  0  0  0  0  0
    7.4670   29.7720    0.1000 H   0  0  0  0  0  0  0  0  0  0  0  0
    7.0930   21.9890    4.5590 H   0  0  0  0  0  0  0  0  0  0  0  0
    7.3970   29.1320    2.7350 H   0  0  0  0  0  0  0  0  0  0  0  0
    8.8870   28.8770    1.7140 H   0  0  0  0  0  0  0  0  0  0  0  0
    8.9300   26.8390    0.3830 H   0  0  0  0  0  0  0  0  0  0  0  0
    9.6360   26.0360    1.8320 H   0  0  0  0  0  0  0  0  0  0  0  0
  1  8  2  0  0  0  0
  1  5  1  0  0  0  0
  1 20  1  0  0  0  0
  2  7  1  0  0  0  0
  2 17  1  0  0  0  0
  2 21  1  0  0  0  0
  3 14  1  0  0  0  0
  3 22  1  0  0  0  0
  4  6  1  0  0  0  0
  4 11  2  0  0  0  0
  4  8  1  0  0  0  0
  4 13  2  0  0  0  0
  5 10  2  0  0  0  0
  5 23  1  0  0  0  0
  6 18  1  0  0  0  0
  6 16  1  0  0  0  0
  7 24  1  0  0  0  0
  8 12  1  0  0  0  0
  9 17  2  0  0  0  0
 10 15  1  0  0  0  0
 10 19  1  0  0  0  0
 12 15  2  0  0  0  0
 12 25  1  0  0  0  0
 14 16  1  0  0  0  0
 14 26  1  0  0  0  0
 14 27  1  0  0  0  0
 15 28  1  0  0  0  0
 16 29  1  0  0  0  0
 16 30  1  0  0  0  0
 17 18  1  0  0  0  0
 18 31  1  0  0  0  0
 18 32  1  0  0  0  0
M  END
>  <lm5_entropy_jk>
21.516358747656277

>  <number_of_rotatable_bonds>
7

>  <deltaG_kcalmol>
-10.11

>  <charge>
0

$$$$
