model22d
 OpenBabel11252210453D

 91 95  0  0  1  0  0  0  0  0999 V2000
    2.6480    2.8520   10.8180 C   0  0  0  0  0  0  0  0  0  0  0  0
    2.7210    1.6410   11.5050 O   0  0  0  0  0  0  0  0  0  0  0  0
    3.7320    3.7710   10.7400 C   0  0  0  0  0  0  0  0  0  0  0  0
    5.3290    0.4390   16.8350 O   0  0  0  0  0  0  0  0  0  0  0  0
    3.8500   -0.8120   12.6500 O   0  0  0  0  0  0  0  0  0  0  0  0
    3.6310    4.9060    9.9240 C   0  0  0  0  0  0  0  0  0  0  0  0
    4.9170    0.5110   14.1420 N   0  0  0  0  0  0  0  0  0  0  0  0
    2.4810    5.1430    9.1640 C   0  0  0  0  0  0  0  0  0  0  0  0
    3.4950   -5.4740   16.6380 C   0  0  0  0  0  0  0  0  0  0  0  0
    5.8430   -3.6790   16.4520 N   0  0  0  0  0  0  0  0  0  0  0  0
    1.4110    4.2460    9.2430 C   0  0  0  0  0  0  0  0  0  0  0  0
    3.6620   -6.2660   17.7850 C   0  0  0  0  0  0  0  0  0  0  0  0
    6.8700   -3.7370   14.4260 O   0  0  0  0  0  0  0  0  0  0  0  0
    1.4790    3.1240   10.0790 C   0  0  0  0  0  0  0  0  0  0  0  0
    3.6610   -7.6670   17.6930 C   0  0  0  0  0  0  0  0  0  0  0  0
    5.0540    3.5790   11.4390 C   0  0  0  0  0  0  0  0  0  0  0  0
    3.5080   -8.2810   16.4400 C   0  0  0  0  0  0  0  0  0  0  0  0
    0.2820    2.2100   10.1680 C   0  0  0  0  0  0  0  0  0  0  0  0
    3.3460   -7.4940   15.2880 C   0  0  0  0  0  0  0  0  0  0  0  0
    7.4660  -10.2100   17.6220 C   0  0  0  0  0  0  0  0  0  0  0  0
    3.3150   -6.0920   15.3930 C   0  0  0  0  0  0  0  0  0  0  0  0
    3.1450    1.5230   12.8840 C   0  0  0  0  0  0  0  0  0  0  0  0
    3.9750    0.2780   13.1890 C   0  0  0  0  0  0  0  0  0  0  0  0
    5.8710   -0.4710   14.6430 C   0  0  1  0  0  0  0  0  0  0  0  0
    6.2300  -11.1240   17.5150 C   0  0  0  0  0  0  0  0  0  0  0  0
    8.1060   -0.0420   10.6740 C   0  0  0  0  0  0  0  0  0  0  0  0
    8.1440    1.3190   10.3480 C   0  0  0  0  0  0  0  0  0  0  0  0
    7.9200    2.2770   11.3430 C   0  0  0  0  0  0  0  0  0  0  0  0
    7.6410    1.8750   12.6600 C   0  0  0  0  0  0  0  0  0  0  0  0
    7.5670    0.5140   12.9830 C   0  0  0  0  0  0  0  0  0  0  0  0
    7.7950   -0.4430   11.9860 C   0  0  0  0  0  0  0  0  0  0  0  0
    7.2890    0.0890   14.4130 C   0  0  0  0  0  0  0  0  0  0  0  0
    5.6010   -0.7780   16.1460 C   0  0  2  0  0  0  0  0  0  0  0  0
    4.3820   -1.6940   16.3840 C   0  0  0  0  0  0  0  0  0  0  0  0
    4.5440   -3.1890   16.0210 C   0  0  2  0  0  0  0  0  0  0  0  0
    6.9170   -3.9360   15.6290 C   0  0  0  0  0  0  0  0  0  0  0  0
    8.2120   -4.3830   16.3630 C   0  0  1  0  0  0  0  0  0  0  0  0
    7.9530   -4.4910   17.7820 O   0  0  0  0  0  0  0  0  0  0  0  0
    3.4400   -3.9650   16.7670 C   0  0  0  0  0  0  0  0  0  0  0  0
    7.7370   -5.7680   18.1990 C   0  0  0  0  0  0  0  0  0  0  0  0
    7.4370   -6.0990   19.3280 O   0  0  0  0  0  0  0  0  0  0  0  0
    8.2800   -6.5800   17.2500 N   0  0  0  0  0  0  0  0  0  0  0  0
    8.7020   -5.8190   16.0510 C   0  0  0  0  0  0  0  0  0  0  0  0
    8.4420   -7.9680   17.4410 C   0  0  0  0  0  0  0  0  0  0  0  0
    7.3340   -8.8220   17.4030 C   0  0  0  0  0  0  0  0  0  0  0  0
    8.7420  -10.7190   17.9480 C   0  0  0  0  0  0  0  0  0  0  0  0
    9.8460   -9.8560   18.0510 C   0  0  0  0  0  0  0  0  0  0  0  0
    9.6930   -8.4840   17.7870 C   0  0  0  0  0  0  0  0  0  0  0  0
    5.2430  -10.7280   18.3490 F   0  0  0  0  0  0  0  0  0  0  0  0
    5.7170  -11.1160   16.2640 F   0  0  0  0  0  0  0  0  0  0  0  0
    6.5000  -12.4150   17.8160 F   0  0  0  0  0  0  0  0  0  0  0  0
    5.8630    4.0510   10.8750 H   0  0  0  0  0  0  0  0  0  0  0  0
    5.2990    2.5130   11.5100 H   0  0  0  0  0  0  0  0  0  0  0  0
    5.0610    4.0130   12.4430 H   0  0  0  0  0  0  0  0  0  0  0  0
    4.4630    5.6060    9.8590 H   0  0  0  0  0  0  0  0  0  0  0  0
    4.9540    1.4340   14.5600 H   0  0  0  0  0  0  0  0  0  0  0  0
    6.0070   -3.8040   17.4460 H   0  0  0  0  0  0  0  0  0  0  0  0
    4.1570   -1.6210   17.4520 H   0  0  0  0  0  0  0  0  0  0  0  0
    3.7870   -5.7930   18.7580 H   0  0  0  0  0  0  0  0  0  0  0  0
    3.7850   -8.2760   18.5890 H   0  0  0  0  0  0  0  0  0  0  0  0
    3.5190   -9.3680   16.3610 H   0  0  0  0  0  0  0  0  0  0  0  0
    3.2510   -7.9740   14.3170 H   0  0  0  0  0  0  0  0  0  0  0  0
    3.1530   -5.4820   14.5100 H   0  0  0  0  0  0  0  0  0  0  0  0
    3.7770    2.3620   13.1680 H   0  0  0  0  0  0  0  0  0  0  0  0
    5.7710   -1.4100   14.0840 H   0  0  0  0  0  0  0  0  0  0  0  0
    2.2860    1.5010   13.5580 H   0  0  0  0  0  0  0  0  0  0  0  0
    2.4200    6.0230    8.5200 H   0  0  0  0  0  0  0  0  0  0  0  0
    0.5240    4.4240    8.6410 H   0  0  0  0  0  0  0  0  0  0  0  0
   -0.5910    2.6490    9.6720 H   0  0  0  0  0  0  0  0  0  0  0  0
    0.0140    2.0100   11.2110 H   0  0  0  0  0  0  0  0  0  0  0  0
    0.5170    1.2470    9.7020 H   0  0  0  0  0  0  0  0  0  0  0  0
    6.1620    0.6150   17.3470 H   0  0  0  0  0  0  0  0  0  0  0  0
    8.3310   -0.7740    9.9070 H   0  0  0  0  0  0  0  0  0  0  0  0
    8.3650    1.6360    9.3300 H   0  0  0  0  0  0  0  0  0  0  0  0
    7.9850    3.3360   11.0960 H   0  0  0  0  0  0  0  0  0  0  0  0
    7.4720    2.6240   13.4290 H   0  0  0  0  0  0  0  0  0  0  0  0
    7.7480   -1.4960   12.2420 H   0  0  0  0  0  0  0  0  0  0  0  0
    8.0140   -0.6680   14.7210 H   0  0  0  0  0  0  0  0  0  0  0  0
    7.4620    0.9330   15.0910 H   0  0  0  0  0  0  0  0  0  0  0  0
    6.4980   -1.2500   16.5810 H   0  0  0  0  0  0  0  0  0  0  0  0
    3.5060   -1.2740   15.8760 H   0  0  0  0  0  0  0  0  0  0  0  0
    4.4420   -3.3390   14.9300 H   0  0  0  0  0  0  0  0  0  0  0  0
    8.9690   -3.6170   16.1380 H   0  0  0  0  0  0  0  0  0  0  0  0
    3.4780   -3.7080   17.8320 H   0  0  0  0  0  0  0  0  0  0  0  0
    2.4580   -3.6210   16.4260 H   0  0  0  0  0  0  0  0  0  0  0  0
    9.7960   -5.8540   15.9300 H   0  0  0  0  0  0  0  0  0  0  0  0
    8.2320   -6.1920   15.1330 H   0  0  0  0  0  0  0  0  0  0  0  0
    6.3620   -8.3980   17.1630 H   0  0  0  0  0  0  0  0  0  0  0  0
    8.8780  -11.7830   18.1480 H   0  0  0  0  0  0  0  0  0  0  0  0
   10.8190  -10.2480   18.3480 H   0  0  0  0  0  0  0  0  0  0  0  0
   10.5440   -7.8150   17.8760 H   0  0  0  0  0  0  0  0  0  0  0  0
  1  3  1  0  0  0  0
  1  2  1  0  0  0  0
  2 22  1  0  0  0  0
  3 16  1  0  0  0  0
  4 72  1  0  0  0  0
  5 23  2  0  0  0  0
  6 55  1  0  0  0  0
  6  3  2  0  0  0  0
  7 24  1  0  0  0  0
  7 56  1  0  0  0  0
  8  6  1  0  0  0  0
  9 39  1  0  0  0  0
  9 12  1  0  0  0  0
 10 57  1  0  0  0  0
 11  8  2  0  0  0  0
 11 14  1  0  0  0  0
 12 59  1  0  0  0  0
 13 36  2  0  0  0  0
 14  1  2  0  0  0  0
 15 12  2  0  0  0  0
 15 60  1  0  0  0  0
 16 54  1  0  0  0  0
 17 15  1  0  0  0  0
 18 14  1  0  0  0  0
 18 70  1  0  0  0  0
 19 21  1  0  0  0  0
 19 17  2  0  0  0  0
 20 46  1  0  0  0  0
 21  9  2  0  0  0  0
 22 64  1  0  0  0  0
 22 23  1  0  0  0  0
 22 66  1  0  0  0  0
 23  7  1  0  0  0  0
 24 65  1  6  0  0  0
 24 33  1  0  0  0  0
 25 51  1  0  0  0  0
 25 20  1  0  0  0  0
 26 31  1  0  0  0  0
 27 26  2  0  0  0  0
 27 28  1  0  0  0  0
 28 29  2  0  0  0  0
 29 30  1  0  0  0  0
 29 76  1  0  0  0  0
 30 32  1  0  0  0  0
 31 77  1  0  0  0  0
 31 30  2  0  0  0  0
 32 78  1  0  0  0  0
 32 24  1  0  0  0  0
 32 79  1  0  0  0  0
 33 80  1  1  0  0  0
 33  4  1  0  0  0  0
 33 34  1  0  0  0  0
 34 58  1  0  0  0  0
 35 82  1  6  0  0  0
 35 34  1  0  0  0  0
 35 10  1  0  0  0  0
 35 39  1  0  0  0  0
 36 10  1  0  0  0  0
 36 37  1  0  0  0  0
 37 83  1  6  0  0  0
 37 38  1  0  0  0  0
 38 40  1  0  0  0  0
 39 84  1  0  0  0  0
 40 41  2  0  0  0  0
 42 44  1  0  0  0  0
 42 40  1  0  0  0  0
 43 37  1  0  0  0  0
 43 42  1  0  0  0  0
 44 48  2  0  0  0  0
 45 20  2  0  0  0  0
 45 44  1  0  0  0  0
 46 89  1  0  0  0  0
 46 47  2  0  0  0  0
 47 90  1  0  0  0  0
 48 47  1  0  0  0  0
 48 91  1  0  0  0  0
 49 25  1  0  0  0  0
 50 25  1  0  0  0  0
 52 16  1  0  0  0  0
 53 16  1  0  0  0  0
 61 17  1  0  0  0  0
 62 19  1  0  0  0  0
 63 21  1  0  0  0  0
 67  8  1  0  0  0  0
 68 11  1  0  0  0  0
 69 18  1  0  0  0  0
 71 18  1  0  0  0  0
 73 26  1  0  0  0  0
 74 27  1  0  0  0  0
 75 28  1  0  0  0  0
 81 34  1  0  0  0  0
 85 39  1  0  0  0  0
 86 43  1  0  0  0  0
 87 43  1  0  0  0  0
 88 45  1  0  0  0  0
M  END
>  <charge>
0

>  <KI_NM>
21.63

>  <number_of_rotatable_bonds>
17

>  <lm5_entropy_jk>
40.025375123851944

>  <ligand_crystal_conformation>
B

$$$$
