model13c
 OpenBabel11252210453D

 87 90  0  0  1  0  0  0  0  0999 V2000
    7.1860   -5.8380   16.8340 N   0  0  0  0  0  0  0  0  0  0  0  0
    7.7830   -5.8500   19.0240 O   0  0  0  0  0  0  0  0  0  0  0  0
    6.9810   -7.8420   18.0770 C   0  0  0  0  0  0  0  0  0  0  0  0
    6.8230   -3.3730   14.4740 O   0  0  0  0  0  0  0  0  0  0  0  0
    7.3410   -6.4190   18.0510 C   0  0  0  0  0  0  0  0  0  0  0  0
    5.6010   -3.3780   16.3730 N   0  0  0  0  0  0  0  0  0  0  0  0
    7.1770    0.9610   12.5300 C   0  0  0  0  0  0  0  0  0  0  0  0
    4.4500    0.5080   13.5730 N   0  0  0  0  0  0  0  0  0  0  0  0
    4.9940    0.8280   16.3040 O   0  0  0  0  0  0  0  0  0  0  0  0
    6.9700    2.2510   12.0190 C   0  0  0  0  0  0  0  0  0  0  0  0
    3.5820   -1.2220   12.3870 O   0  0  0  0  0  0  0  0  0  0  0  0
    7.2950    2.5470   10.6840 C   0  0  0  0  0  0  0  0  0  0  0  0
    7.8350    1.5460    9.8600 C   0  0  0  0  0  0  0  0  0  0  0  0
    8.0460    0.2540   10.3700 C   0  0  0  0  0  0  0  0  0  0  0  0
    7.7100   -0.0370   11.7030 C   0  0  0  0  0  0  0  0  0  0  0  0
    7.7650   -4.5120   16.4440 C   0  0  2  0  0  0  0  0  0  0  0  0
    6.7230   -3.6840   15.6530 C   0  0  0  0  0  0  0  0  0  0  0  0
    4.3770   -2.8890   15.7870 C   0  0  1  0  0  0  0  0  0  0  0  0
    9.1390   -4.6930   15.7350 C   0  0  0  0  0  0  0  0  0  0  0  0
    9.8410   -3.3540   15.4890 C   0  0  0  0  0  0  0  0  0  0  0  0
   10.0980   -5.5030   16.6210 C   0  0  0  0  0  0  0  0  0  0  0  0
    3.2500   -7.2700   15.2390 C   0  0  0  0  0  0  0  0  0  0  0  0
    3.3690   -7.9610   16.4550 C   0  0  0  0  0  0  0  0  0  0  0  0
    3.4490   -7.2480   17.6620 C   0  0  0  0  0  0  0  0  0  0  0  0
    3.4250   -5.8430   17.6440 C   0  0  0  0  0  0  0  0  0  0  0  0
    3.2970   -5.1480   16.4310 C   0  0  0  0  0  0  0  0  0  0  0  0
    3.1930   -5.8640   15.2320 C   0  0  0  0  0  0  0  0  0  0  0  0
    3.2000   -3.6340   16.4350 C   0  0  0  0  0  0  0  0  0  0  0  0
    4.2030   -1.3930   16.0850 C   0  0  0  0  0  0  0  0  0  0  0  0
    5.3540   -0.4220   15.7310 C   0  0  1  0  0  0  0  0  0  0  0  0
    5.5920   -0.1840   14.2060 C   0  0  2  0  0  0  0  0  0  0  0  0
    3.4960   -0.0700   12.7710 C   0  0  0  0  0  0  0  0  0  0  0  0
    2.2800    0.8420   12.4580 C   0  0  1  0  0  0  0  0  0  0  0  0
    2.5780    2.2070   12.8420 O   0  0  0  0  0  0  0  0  0  0  0  0
    6.8750    0.6600   13.9830 C   0  0  0  0  0  0  0  0  0  0  0  0
    2.8410    3.0270   11.7890 C   0  0  0  0  0  0  0  0  0  0  0  0
    3.1360    4.2030   11.8690 O   0  0  0  0  0  0  0  0  0  0  0  0
    2.3600    2.4050   10.6770 N   0  0  0  0  0  0  0  0  0  0  0  0
    1.9300    1.0150   10.9580 C   0  0  0  0  0  0  0  0  0  0  0  0
    2.2720    3.0520    9.4300 C   0  0  0  0  0  0  0  0  0  0  0  0
    3.4340    3.4660    8.7680 C   0  0  0  0  0  0  0  0  0  0  0  0
    3.3480    4.1540    7.5520 C   0  0  0  0  0  0  0  0  0  0  0  0
    2.0910    4.4660    7.0050 C   0  0  0  0  0  0  0  0  0  0  0  0
    0.9230    4.0950    7.6870 C   0  0  0  0  0  0  0  0  0  0  0  0
    1.0210    3.3820    8.8990 C   0  0  0  0  0  0  0  0  0  0  0  0
    1.9990    5.1410    5.8390 F   0  0  0  0  0  0  0  0  0  0  0  0
    4.4800    4.5180    6.9130 F   0  0  0  0  0  0  0  0  0  0  0  0
    6.8380   -6.4600   16.1100 H   0  0  0  0  0  0  0  0  0  0  0  0
    6.0650   -7.9940   17.5050 H   0  0  0  0  0  0  0  0  0  0  0  0
    7.7900   -8.4170   17.6230 H   0  0  0  0  0  0  0  0  0  0  0  0
    6.8310   -8.1550   19.1130 H   0  0  0  0  0  0  0  0  0  0  0  0
    5.5850   -3.6810   17.3400 H   0  0  0  0  0  0  0  0  0  0  0  0
    4.2770    1.4820   13.8010 H   0  0  0  0  0  0  0  0  0  0  0  0
    5.1080    1.4650   15.5720 H   0  0  0  0  0  0  0  0  0  0  0  0
    6.5600    3.0280   12.6610 H   0  0  0  0  0  0  0  0  0  0  0  0
    7.1380    3.5530   10.2930 H   0  0  0  0  0  0  0  0  0  0  0  0
    8.0890    1.7760    8.8250 H   0  0  0  0  0  0  0  0  0  0  0  0
    8.4680   -0.5200    9.7350 H   0  0  0  0  0  0  0  0  0  0  0  0
    7.8720   -1.0330   12.1040 H   0  0  0  0  0  0  0  0  0  0  0  0
    7.9360   -3.9240   17.3530 H   0  0  0  0  0  0  0  0  0  0  0  0
    4.3830   -3.0730   14.6990 H   0  0  0  0  0  0  0  0  0  0  0  0
    8.9710   -5.2120   14.7750 H   0  0  0  0  0  0  0  0  0  0  0  0
   10.7760   -3.4900   14.9350 H   0  0  0  0  0  0  0  0  0  0  0  0
    9.2130   -2.6880   14.8850 H   0  0  0  0  0  0  0  0  0  0  0  0
   10.0720   -2.8390   16.4300 H   0  0  0  0  0  0  0  0  0  0  0  0
   11.1250   -5.4650   16.2550 H   0  0  0  0  0  0  0  0  0  0  0  0
   10.0990   -5.1240   17.6510 H   0  0  0  0  0  0  0  0  0  0  0  0
    9.8020   -6.5580   16.6580 H   0  0  0  0  0  0  0  0  0  0  0  0
    3.2070   -7.8250   14.3050 H   0  0  0  0  0  0  0  0  0  0  0  0
    3.4050   -9.0500   16.4630 H   0  0  0  0  0  0  0  0  0  0  0  0
    3.5420   -7.7810   18.6090 H   0  0  0  0  0  0  0  0  0  0  0  0
    3.4980   -5.2920   18.5790 H   0  0  0  0  0  0  0  0  0  0  0  0
    3.0690   -5.3260   14.2970 H   0  0  0  0  0  0  0  0  0  0  0  0
    2.2860   -3.3480   15.9150 H   0  0  0  0  0  0  0  0  0  0  0  0
    3.0710   -3.2900   17.4680 H   0  0  0  0  0  0  0  0  0  0  0  0
    4.0730   -1.3000   17.1660 H   0  0  0  0  0  0  0  0  0  0  0  0
    3.2730   -1.0340   15.6340 H   0  0  0  0  0  0  0  0  0  0  0  0
    6.2930   -0.7890   16.1860 H   0  0  0  0  0  0  0  0  0  0  0  0
    5.7400   -1.1670   13.7380 H   0  0  0  0  0  0  0  0  0  0  0  0
    1.4410    0.4290   13.0380 H   0  0  0  0  0  0  0  0  0  0  0  0
    6.8220    1.5970   14.5470 H   0  0  0  0  0  0  0  0  0  0  0  0
    7.7280    0.1310   14.4260 H   0  0  0  0  0  0  0  0  0  0  0  0
    0.8510    0.8890   10.7750 H   0  0  0  0  0  0  0  0  0  0  0  0
    2.4800    0.2810   10.3510 H   0  0  0  0  0  0  0  0  0  0  0  0
    4.4060    3.2250    9.1840 H   0  0  0  0  0  0  0  0  0  0  0  0
   -0.0490    4.3790    7.2860 H   0  0  0  0  0  0  0  0  0  0  0  0
    0.1210    3.1200    9.4490 H   0  0  0  0  0  0  0  0  0  0  0  0
  1  5  1  0  0  0  0
  1 16  1  0  0  0  0
  1 48  1  0  0  0  0
  2  5  2  0  0  0  0
  3  5  1  0  0  0  0
  3 49  1  0  0  0  0
  3 50  1  0  0  0  0
  3 51  1  0  0  0  0
  4 17  2  0  0  0  0
  6 17  1  0  0  0  0
  6 18  1  0  0  0  0
  6 52  1  0  0  0  0
  7 10  2  0  0  0  0
  7 15  1  0  0  0  0
  7 35  1  0  0  0  0
  8 31  1  0  0  0  0
  8 32  1  0  0  0  0
  8 53  1  0  0  0  0
  9 30  1  0  0  0  0
  9 54  1  0  0  0  0
 10 12  1  0  0  0  0
 10 55  1  0  0  0  0
 11 32  2  0  0  0  0
 12 13  2  0  0  0  0
 12 56  1  0  0  0  0
 13 14  1  0  0  0  0
 13 57  1  0  0  0  0
 14 15  2  0  0  0  0
 14 58  1  0  0  0  0
 15 59  1  0  0  0  0
 16 17  1  0  0  0  0
 16 19  1  0  0  0  0
 16 60  1  1  0  0  0
 18 28  1  0  0  0  0
 18 29  1  0  0  0  0
 18 61  1  6  0  0  0
 19 20  1  0  0  0  0
 19 21  1  0  0  0  0
 19 62  1  0  0  0  0
 20 63  1  0  0  0  0
 20 64  1  0  0  0  0
 20 65  1  0  0  0  0
 21 66  1  0  0  0  0
 21 67  1  0  0  0  0
 21 68  1  0  0  0  0
 22 23  2  0  0  0  0
 22 27  1  0  0  0  0
 22 69  1  0  0  0  0
 23 24  1  0  0  0  0
 23 70  1  0  0  0  0
 24 25  2  0  0  0  0
 24 71  1  0  0  0  0
 25 26  1  0  0  0  0
 25 72  1  0  0  0  0
 26 27  2  0  0  0  0
 26 28  1  0  0  0  0
 27 73  1  0  0  0  0
 28 74  1  0  0  0  0
 28 75  1  0  0  0  0
 29 30  1  0  0  0  0
 29 76  1  0  0  0  0
 29 77  1  0  0  0  0
 30 31  1  0  0  0  0
 30 78  1  1  0  0  0
 31 35  1  0  0  0  0
 31 79  1  6  0  0  0
 32 33  1  0  0  0  0
 33 34  1  0  0  0  0
 33 39  1  0  0  0  0
 33 80  1  6  0  0  0
 34 36  1  0  0  0  0
 35 81  1  0  0  0  0
 35 82  1  0  0  0  0
 36 37  2  0  0  0  0
 36 38  1  0  0  0  0
 38 39  1  0  0  0  0
 38 40  1  0  0  0  0
 39 83  1  0  0  0  0
 39 84  1  0  0  0  0
 40 41  2  0  0  0  0
 40 45  1  0  0  0  0
 41 42  1  0  0  0  0
 41 85  1  0  0  0  0
 42 43  2  0  0  0  0
 42 47  1  0  0  0  0
 43 44  1  0  0  0  0
 43 46  1  0  0  0  0
 44 45  2  0  0  0  0
 44 86  1  0  0  0  0
 45 87  1  0  0  0  0
M  END
>  <charge>
0

>  <KI_NM>
2.13

>  <number_of_rotatable_bonds>
17

>  <lm5_entropy_jk>
42.441311785015955

>  <ligand_crystal_conformation>
A

$$$$
