model13d
 OpenBabel11252210453D

 90 93  0  0  1  0  0  0  0  0999 V2000
    6.3870    4.0890    6.2700 C   0  0  0  0  0  0  0  0  0  0  0  0
    7.1500   -6.1240   16.9620 N   0  0  0  0  0  0  0  0  0  0  0  0
    7.8460   -5.9240   19.1400 O   0  0  0  0  0  0  0  0  0  0  0  0
    7.1370   -8.1080   18.4030 C   0  0  0  0  0  0  0  0  0  0  0  0
    6.2800   -4.1120   14.6130 O   0  0  0  0  0  0  0  0  0  0  0  0
    7.4270   -6.6430   18.2430 C   0  0  0  0  0  0  0  0  0  0  0  0
    5.5580   -3.3790   16.6370 N   0  0  0  0  0  0  0  0  0  0  0  0
    7.4340    0.7490   12.8030 C   0  0  0  0  0  0  0  0  0  0  0  0
    4.6890    0.4690   13.7160 N   0  0  0  0  0  0  0  0  0  0  0  0
    5.2040    0.7820   16.4750 O   0  0  0  0  0  0  0  0  0  0  0  0
    7.2540    2.0610   12.3350 C   0  0  0  0  0  0  0  0  0  0  0  0
    4.4450   -1.0480   12.0370 O   0  0  0  0  0  0  0  0  0  0  0  0
    7.4560    2.3560   10.9850 C   0  0  0  0  0  0  0  0  0  0  0  0
    7.8250    1.3450   10.0940 C   0  0  0  0  0  0  0  0  0  0  0  0
    8.0390    0.0450   10.5640 C   0  0  0  0  0  0  0  0  0  0  0  0
    7.8540   -0.2540   11.9150 C   0  0  0  0  0  0  0  0  0  0  0  0
    7.6070   -4.7740   16.5710 C   0  0  2  0  0  0  0  0  0  0  0  0
    6.4310   -4.1030   15.8260 C   0  0  0  0  0  0  0  0  0  0  0  0
    4.2700   -2.8640   16.1040 C   0  0  1  0  0  0  0  0  0  0  0  0
    8.8720   -4.8150   15.6660 C   0  0  0  0  0  0  0  0  0  0  0  0
    9.2590   -3.3920   15.2460 C   0  0  0  0  0  0  0  0  0  0  0  0
   10.0340   -5.5040   16.3910 C   0  0  0  0  0  0  0  0  0  0  0  0
    2.3000   -6.9730   15.7090 C   0  0  0  0  0  0  0  0  0  0  0  0
    2.8640   -7.7530   16.7230 C   0  0  0  0  0  0  0  0  0  0  0  0
    3.5070   -7.1310   17.7980 C   0  0  0  0  0  0  0  0  0  0  0  0
    3.5820   -5.7380   17.8590 C   0  0  0  0  0  0  0  0  0  0  0  0
    3.0170   -4.9540   16.8390 C   0  0  0  0  0  0  0  0  0  0  0  0
    2.3780   -5.5800   15.7590 C   0  0  0  0  0  0  0  0  0  0  0  0
    3.0890   -3.4560   16.9200 C   0  0  0  0  0  0  0  0  0  0  0  0
    4.2040   -1.3290   16.2320 C   0  0  0  0  0  0  0  0  0  0  0  0
    5.4540   -0.5240   15.8830 C   0  0  1  0  0  0  0  0  0  0  0  0
    5.7660   -0.3120   14.3780 C   0  0  2  0  0  0  0  0  0  0  0  0
    4.2220    0.0710   12.4780 C   0  0  0  0  0  0  0  0  0  0  0  0
    3.3040    1.0390   11.7020 C   0  0  1  0  0  0  0  0  0  0  0  0
    3.1450    2.2840   12.4470 O   0  0  0  0  0  0  0  0  0  0  0  0
    7.1300    0.4170   14.2350 C   0  0  0  0  0  0  0  0  0  0  0  0
    3.4470    3.3980   11.6480 C   0  0  0  0  0  0  0  0  0  0  0  0
    3.3050    4.5120   12.0710 O   0  0  0  0  0  0  0  0  0  0  0  0
    3.9130    2.9440   10.4030 N   0  0  0  0  0  0  0  0  0  0  0  0
    3.8790    1.4530   10.3270 C   0  0  0  0  0  0  0  0  0  0  0  0
    4.0370    3.7660    9.2330 C   0  0  0  0  0  0  0  0  0  0  0  0
    5.1120    3.5470    8.3550 C   0  0  0  0  0  0  0  0  0  0  0  0
    5.2630    4.3710    7.2340 C   0  0  0  0  0  0  0  0  0  0  0  0
    4.3630    5.4140    6.9890 C   0  0  0  0  0  0  0  0  0  0  0  0
    3.2980    5.6250    7.8730 C   0  0  0  0  0  0  0  0  0  0  0  0
    3.1190    4.8040    8.9850 C   0  0  0  0  0  0  0  0  0  0  0  0
    7.5490    3.7030    6.8280 F   0  0  0  0  0  0  0  0  0  0  0  0
    6.1140    3.1030    5.3950 F   0  0  0  0  0  0  0  0  0  0  0  0
    6.7630    5.1110    5.4810 F   0  0  0  0  0  0  0  0  0  0  0  0
    7.0070   -6.7930   16.1820 H   0  0  0  0  0  0  0  0  0  0  0  0
    6.3600   -8.4760   17.6880 H   0  0  0  0  0  0  0  0  0  0  0  0
    8.0680   -8.7000   18.2190 H   0  0  0  0  0  0  0  0  0  0  0  0
    6.7830   -8.3280   19.4390 H   0  0  0  0  0  0  0  0  0  0  0  0
    5.6280   -3.4070   17.6680 H   0  0  0  0  0  0  0  0  0  0  0  0
    4.5700    1.4300   14.0510 H   0  0  0  0  0  0  0  0  0  0  0  0
    6.0850    1.0080   16.9590 H   0  0  0  0  0  0  0  0  0  0  0  0
    6.9590    2.8520   13.0270 H   0  0  0  0  0  0  0  0  0  0  0  0
    7.3200    3.3780   10.6260 H   0  0  0  0  0  0  0  0  0  0  0  0
    7.9450    1.5690    9.0340 H   0  0  0  0  0  0  0  0  0  0  0  0
    8.3450   -0.7360    9.8700 H   0  0  0  0  0  0  0  0  0  0  0  0
    8.0360   -1.2620   12.2830 H   0  0  0  0  0  0  0  0  0  0  0  0
    7.8500   -4.1910   17.5010 H   0  0  0  0  0  0  0  0  0  0  0  0
    4.1760   -3.1700   15.0290 H   0  0  0  0  0  0  0  0  0  0  0  0
    8.6240   -5.4130   14.7540 H   0  0  0  0  0  0  0  0  0  0  0  0
   10.2300   -3.4140   14.7040 H   0  0  0  0  0  0  0  0  0  0  0  0
    8.4820   -2.9620   14.5750 H   0  0  0  0  0  0  0  0  0  0  0  0
    9.3700   -2.7370   16.1370 H   0  0  0  0  0  0  0  0  0  0  0  0
   10.8740   -5.6240   15.6780 H   0  0  0  0  0  0  0  0  0  0  0  0
   10.3760   -4.8970   17.2570 H   0  0  0  0  0  0  0  0  0  0  0  0
    9.7400   -6.5150   16.7490 H   0  0  0  0  0  0  0  0  0  0  0  0
    1.8060   -7.4530   14.8700 H   0  0  0  0  0  0  0  0  0  0  0  0
    2.8090   -8.8420   16.6810 H   0  0  0  0  0  0  0  0  0  0  0  0
    3.9510   -7.7350   18.5920 H   0  0  0  0  0  0  0  0  0  0  0  0
    4.0850   -5.2560   18.6990 H   0  0  0  0  0  0  0  0  0  0  0  0
    1.9320   -4.9800   14.9670 H   0  0  0  0  0  0  0  0  0  0  0  0
    2.1400   -3.0020   16.5470 H   0  0  0  0  0  0  0  0  0  0  0  0
    3.1970   -3.1490   17.9930 H   0  0  0  0  0  0  0  0  0  0  0  0
    4.0320   -1.1110   17.3200 H   0  0  0  0  0  0  0  0  0  0  0  0
    3.3300   -0.9630   15.6460 H   0  0  0  0  0  0  0  0  0  0  0  0
    6.3560   -0.9660   16.3790 H   0  0  0  0  0  0  0  0  0  0  0  0
    5.8490   -1.3260   13.8970 H   0  0  0  0  0  0  0  0  0  0  0  0
    2.2730    0.6070   11.6300 H   0  0  0  0  0  0  0  0  0  0  0  0
    7.1190    1.3470   14.8600 H   0  0  0  0  0  0  0  0  0  0  0  0
    7.9310   -0.2340   14.6690 H   0  0  0  0  0  0  0  0  0  0  0  0
    3.2200    1.1130    9.4870 H   0  0  0  0  0  0  0  0  0  0  0  0
    4.9250    1.0760   10.1640 H   0  0  0  0  0  0  0  0  0  0  0  0
    5.8110    2.7250    8.5400 H   0  0  0  0  0  0  0  0  0  0  0  0
    4.4590    6.0650    6.1140 H   0  0  0  0  0  0  0  0  0  0  0  0
    2.2600    4.9750    9.6390 H   0  0  0  0  0  0  0  0  0  0  0  0
    2.5890    6.4380    7.6760 H   0  0  0  0  0  0  0  0  0  0  0  0
  1 43  1  0  0  0  0
  1 47  1  0  0  0  0
  1 48  1  0  0  0  0
  1 49  1  0  0  0  0
  2  6  1  0  0  0  0
  2 17  1  0  0  0  0
  2 50  1  0  0  0  0
  3  6  2  0  0  0  0
  4  6  1  0  0  0  0
  4 51  1  0  0  0  0
  4 52  1  0  0  0  0
  4 53  1  0  0  0  0
  5 18  2  0  0  0  0
  7 18  1  0  0  0  0
  7 19  1  0  0  0  0
  7 54  1  0  0  0  0
  8 11  2  0  0  0  0
  8 16  1  0  0  0  0
  8 36  1  0  0  0  0
  9 32  1  0  0  0  0
  9 33  1  0  0  0  0
  9 55  1  0  0  0  0
 10 31  1  0  0  0  0
 10 56  1  0  0  0  0
 11 13  1  0  0  0  0
 11 57  1  0  0  0  0
 12 33  2  0  0  0  0
 13 14  2  0  0  0  0
 13 58  1  0  0  0  0
 14 15  1  0  0  0  0
 14 59  1  0  0  0  0
 15 16  2  0  0  0  0
 15 60  1  0  0  0  0
 16 61  1  0  0  0  0
 17 18  1  0  0  0  0
 17 20  1  0  0  0  0
 17 62  1  1  0  0  0
 19 29  1  0  0  0  0
 19 30  1  0  0  0  0
 19 63  1  6  0  0  0
 20 21  1  0  0  0  0
 20 22  1  0  0  0  0
 20 64  1  0  0  0  0
 21 65  1  0  0  0  0
 21 66  1  0  0  0  0
 21 67  1  0  0  0  0
 22 68  1  0  0  0  0
 22 69  1  0  0  0  0
 22 70  1  0  0  0  0
 23 24  2  0  0  0  0
 23 28  1  0  0  0  0
 23 71  1  0  0  0  0
 24 25  1  0  0  0  0
 24 72  1  0  0  0  0
 25 26  2  0  0  0  0
 25 73  1  0  0  0  0
 26 27  1  0  0  0  0
 26 74  1  0  0  0  0
 27 28  2  0  0  0  0
 27 29  1  0  0  0  0
 28 75  1  0  0  0  0
 29 76  1  0  0  0  0
 29 77  1  0  0  0  0
 30 31  1  0  0  0  0
 30 78  1  0  0  0  0
 30 79  1  0  0  0  0
 31 32  1  0  0  0  0
 31 80  1  1  0  0  0
 32 36  1  0  0  0  0
 32 81  1  6  0  0  0
 33 34  1  0  0  0  0
 34 35  1  0  0  0  0
 34 40  1  0  0  0  0
 34 82  1  6  0  0  0
 35 37  1  0  0  0  0
 36 83  1  0  0  0  0
 36 84  1  0  0  0  0
 37 38  2  0  0  0  0
 37 39  1  0  0  0  0
 39 40  1  0  0  0  0
 39 41  1  0  0  0  0
 40 85  1  0  0  0  0
 40 86  1  0  0  0  0
 41 42  2  0  0  0  0
 41 46  1  0  0  0  0
 42 43  1  0  0  0  0
 42 87  1  0  0  0  0
 43 44  2  0  0  0  0
 44 45  1  0  0  0  0
 44 88  1  0  0  0  0
 45 46  2  0  0  0  0
 45 90  1  0  0  0  0
 46 89  1  0  0  0  0
M  END
>  <charge>
0

>  <KI_NM>
2.62

>  <number_of_rotatable_bonds>
18

>  <lm5_entropy_jk>
42.88787327729588

>  <ligand_crystal_conformation>
A

$$$$
