3QQK
 OpenBabel11252210453D

 31 32  0  0  0  0  0  0  0  0999 V2000
   62.1500  153.7670  -45.8630 C   0  0  0  0  0  0  0  0  0  0  0  0
   62.5670  154.2100  -47.0550 C   0  0  0  0  0  0  0  0  0  0  0  0
   64.0040  154.5880  -47.2690 C   0  0  0  0  0  0  0  0  0  0  0  0
   64.3800  154.6210  -48.7040 N   0  0  0  0  0  0  0  0  0  0  0  0
   65.5330  154.0930  -49.2210 C   0  0  0  0  0  0  0  0  0  0  0  0
   65.8500  154.2970  -50.4850 N   0  0  0  0  0  0  0  0  0  0  0  0
   66.9260  153.5070  -50.7960 C   0  0  0  0  0  0  0  0  0  0  0  0
   67.4180  152.7100  -49.8130 C   0  0  0  0  0  0  0  0  0  0  0  0
   66.6080  153.0490  -48.3150 S   0  0  0  0  0  0  0  0  0  0  0  0
   67.3150  153.4610  -52.0640 N   0  0  0  0  0  0  0  0  0  0  0  0
   68.4620  151.6990  -50.0340 C   0  0  0  0  0  0  0  0  0  0  0  0
   68.7080  150.6520  -48.9660 C   0  0  0  0  0  0  0  0  0  0  0  0
   67.6530  150.0780  -48.2180 C   0  0  0  0  0  0  0  0  0  0  0  0
   67.9060  149.0800  -47.2630 C   0  0  0  0  0  0  0  0  0  0  0  0
   69.2100  148.6030  -47.0780 C   0  0  0  0  0  0  0  0  0  0  0  0
   70.2590  149.1220  -47.8540 C   0  0  0  0  0  0  0  0  0  0  0  0
   70.0120  150.1450  -48.7870 C   0  0  0  0  0  0  0  0  0  0  0  0
   69.1020  151.6780  -51.0720 O   0  0  0  0  0  0  0  0  0  0  0  0
   61.1150  153.5160  -45.6550 H   0  0  0  0  0  0  0  0  0  0  0  0
   62.8390  153.6470  -45.0250 H   0  0  0  0  0  0  0  0  0  0  0  0
   61.8910  154.3440  -47.9010 H   0  0  0  0  0  0  0  0  0  0  0  0
   64.1660  155.5760  -46.8120 H   0  0  0  0  0  0  0  0  0  0  0  0
   64.6140  153.8590  -46.7200 H   0  0  0  0  0  0  0  0  0  0  0  0
   63.8170  155.1640  -49.3590 H   0  0  0  0  0  0  0  0  0  0  0  0
   67.0750  154.2080  -52.7030 H   0  0  0  0  0  0  0  0  0  0  0  0
   68.1460  152.9020  -52.2160 H   0  0  0  0  0  0  0  0  0  0  0  0
   66.6260  150.3880  -48.3890 H   0  0  0  0  0  0  0  0  0  0  0  0
   67.0860  148.6630  -46.6780 H   0  0  0  0  0  0  0  0  0  0  0  0
   69.4010  147.8040  -46.3590 H   0  0  0  0  0  0  0  0  0  0  0  0
   71.2610  148.7140  -47.7460 H   0  0  0  0  0  0  0  0  0  0  0  0
   70.8290  150.5410  -49.3920 H   0  0  0  0  0  0  0  0  0  0  0  0
  1  2  2  0  0  0  0
  1 19  1  0  0  0  0
  1 20  1  0  0  0  0
  2 21  1  0  0  0  0
  3  2  1  0  0  0  0
  3 22  1  0  0  0  0
  3 23  1  0  0  0  0
  4  3  1  0  0  0  0
  4 24  1  0  0  0  0
  5  4  1  0  0  0  0
  5  9  1  0  0  0  0
  6  5  2  0  0  0  0
  7  6  1  0  0  0  0
  7  8  2  0  0  0  0
  8  9  1  0  0  0  0
 10  7  1  0  0  0  0
 10 25  1  0  0  0  0
 10 26  1  0  0  0  0
 11  8  1  0  0  0  0
 11 12  1  0  0  0  0
 12 17  2  0  0  0  0
 12 13  1  0  0  0  0
 13 14  2  0  0  0  0
 13 27  1  0  0  0  0
 14 15  1  0  0  0  0
 14 28  1  0  0  0  0
 15 29  1  0  0  0  0
 16 15  2  0  0  0  0
 16 30  1  0  0  0  0
 17 16  1  0  0  0  0
 17 31  1  0  0  0  0
 18 11  2  0  0  0  0
M  END
>  <lm5_entropy_jk>
22.397995528352578

>  <number_of_rotatable_bonds>
5

>  <IC50_NM>
15000

>  <charge>
0

$$$$
