3LJO
 OpenBabel11252210453D

 61 63  0  0  1  0  0  0  0  0999 V2000
    2.2480   20.2010   18.2520 N   0  0  0  0  0  0  0  0  0  0  0  0
    0.1570   21.0360   15.2650 N   0  3  0  0  0  0  0  0  0  0  0  0
    0.7730   17.3250   19.6610 N   0  0  0  0  0  0  0  0  0  0  0  0
   -1.6120   12.4970   14.8130 N   0  3  0  0  0  0  0  0  0  0  0  0
   -2.8030   14.2950   13.9410 N   0  0  0  0  0  0  0  0  0  0  0  0
    2.4390   19.1230   19.2740 C   0  0  1  0  0  0  0  0  0  0  0  0
    3.2720   19.7600   20.4030 C   0  0  0  0  0  0  0  0  0  0  0  0
    3.2780   21.2830   20.1600 C   0  0  0  0  0  0  0  0  0  0  0  0
    2.7650   21.5260   18.7280 C   0  0  0  0  0  0  0  0  0  0  0  0
    1.0340   18.6910   19.7520 C   0  0  0  0  0  0  0  0  0  0  0  0
    1.5210   19.9950   17.1090 C   0  0  0  0  0  0  0  0  0  0  0  0
    1.4030   21.1660   16.1240 C   0  0  0  0  0  0  0  0  0  0  0  0
    0.0000   22.2530   14.2940 C   0  0  0  0  0  0  0  0  0  0  0  0
    0.8220   22.0110   13.0200 C   0  0  0  0  0  0  0  0  0  0  0  0
    0.5900   23.1660   12.0250 C   0  0  0  0  0  0  0  0  0  0  0  0
   -0.9010   23.3630   11.7190 C   0  0  0  0  0  0  0  0  0  0  0  0
   -1.7110   23.5800   13.0030 C   0  0  0  0  0  0  0  0  0  0  0  0
   -1.5010   22.4350   14.0150 C   0  0  0  0  0  0  0  0  0  0  0  0
   -0.6160   16.8170   19.6810 C   0  0  0  0  0  0  0  0  0  0  0  0
   -0.9330   16.0610   18.4080 C   0  0  0  0  0  0  0  0  0  0  0  0
   -0.8970   14.6570   18.4260 C   0  0  0  0  0  0  0  0  0  0  0  0
   -1.2380   13.9300   17.2930 C   0  0  0  0  0  0  0  0  0  0  0  0
   -1.6210   14.5900   16.1070 C   0  0  0  0  0  0  0  0  0  0  0  0
   -1.6470   15.9980   16.0860 C   0  0  0  0  0  0  0  0  0  0  0  0
   -1.3000   16.7230   17.2270 C   0  0  0  0  0  0  0  0  0  0  0  0
   -2.0310   13.7840   14.9420 C   0  0  0  0  0  0  0  0  0  0  0  0
    0.2140   19.4690   20.2110 O   0  0  0  0  0  0  0  0  0  0  0  0
    1.0190   18.9000   16.8430 O   0  0  0  0  0  0  0  0  0  0  0  0
    2.9920   18.2730   18.7940 H   0  0  0  0  0  0  0  0  0  0  0  0
    4.3170   19.3650   20.3640 H   0  0  0  0  0  0  0  0  0  0  0  0
    2.8420   19.5280   21.4050 H   0  0  0  0  0  0  0  0  0  0  0  0
    2.6150   21.8060   20.8930 H   0  0  0  0  0  0  0  0  0  0  0  0
    4.3080   21.7020   20.2700 H   0  0  0  0  0  0  0  0  0  0  0  0
    0.1860   20.1290   14.7080 H   0  0  0  0  0  0  0  0  0  0  0  0
   -0.6830   21.0030   15.9100 H   0  0  0  0  0  0  0  0  0  0  0  0
    1.9460   22.2920   18.7210 H   0  0  0  0  0  0  0  0  0  0  0  0
    3.5870   21.8610   18.0400 H   0  0  0  0  0  0  0  0  0  0  0  0
    1.3560   22.1660   16.6530 H   0  0  0  0  0  0  0  0  0  0  0  0
    2.3270   21.1890   15.4700 H   0  0  0  0  0  0  0  0  0  0  0  0
    0.3950   23.1560   14.8400 H   0  0  0  0  0  0  0  0  0  0  0  0
    1.9110   21.9690   13.2740 H   0  0  0  0  0  0  0  0  0  0  0  0
    0.5300   21.0490   12.5410 H   0  0  0  0  0  0  0  0  0  0  0  0
    1.0150   24.1050   12.4610 H   0  0  0  0  0  0  0  0  0  0  0  0
    1.1430   22.9360   11.0810 H   0  0  0  0  0  0  0  0  0  0  0  0
   -1.2900   22.4680   11.1780 H   0  0  0  0  0  0  0  0  0  0  0  0
   -1.0230   24.2550   11.0540 H   0  0  0  0  0  0  0  0  0  0  0  0
   -2.8010   23.6390   12.7590 H   0  0  0  0  0  0  0  0  0  0  0  0
   -1.4070   24.5430   13.4850 H   0  0  0  0  0  0  0  0  0  0  0  0
   -1.9320   21.4940   13.6100 H   0  0  0  0  0  0  0  0  0  0  0  0
   -2.0350   22.6990   14.9640 H   0  0  0  0  0  0  0  0  0  0  0  0
    1.4880   16.6580   19.3240 H   0  0  0  0  0  0  0  0  0  0  0  0
   -0.7240   16.1300   20.5700 H   0  0  0  0  0  0  0  0  0  0  0  0
   -1.3480   17.6710   19.7850 H   0  0  0  0  0  0  0  0  0  0  0  0
   -0.6200   14.1250   19.3430 H   0  0  0  0  0  0  0  0  0  0  0  0
   -1.2230   12.8400   17.3520 H   0  0  0  0  0  0  0  0  0  0  0  0
   -1.9430   16.5490   15.1900 H   0  0  0  0  0  0  0  0  0  0  0  0
   -1.3340   17.8180   17.1830 H   0  0  0  0  0  0  0  0  0  0  0  0
   -2.0640   11.8410   14.1360 H   0  0  0  0  0  0  0  0  0  0  0  0
   -0.9140   12.0790   15.4660 H   0  0  0  0  0  0  0  0  0  0  0  0
   -3.1680   13.6580   13.1860 H   0  0  0  0  0  0  0  0  0  0  0  0
   -3.2380   15.2340   14.0160 H   0  0  0  0  0  0  0  0  0  0  0  0
  1  6  1  0  0  0  0
  1  9  1  0  0  0  0
  1 11  1  0  0  0  0
  2 12  1  0  0  0  0
  2 13  1  0  0  0  0
  2 34  1  0  0  0  0
  2 35  1  0  0  0  0
  3 10  1  0  0  0  0
  3 19  1  0  0  0  0
  3 51  1  0  0  0  0
  4 26  2  0  0  0  0
  4 58  1  0  0  0  0
  4 59  1  0  0  0  0
  5 26  1  0  0  0  0
  5 60  1  0  0  0  0
  5 61  1  0  0  0  0
  6  7  1  0  0  0  0
  6 10  1  0  0  0  0
  6 29  1  6  0  0  0
  7  8  1  0  0  0  0
  7 30  1  0  0  0  0
  7 31  1  0  0  0  0
  8  9  1  0  0  0  0
  8 32  1  0  0  0  0
  8 33  1  0  0  0  0
  9 36  1  0  0  0  0
  9 37  1  0  0  0  0
 10 27  2  0  0  0  0
 11 12  1  0  0  0  0
 11 28  2  0  0  0  0
 12 38  1  0  0  0  0
 12 39  1  0  0  0  0
 13 14  1  0  0  0  0
 13 18  1  0  0  0  0
 13 40  1  0  0  0  0
 14 15  1  0  0  0  0
 14 41  1  0  0  0  0
 14 42  1  0  0  0  0
 15 16  1  0  0  0  0
 15 43  1  0  0  0  0
 15 44  1  0  0  0  0
 16 17  1  0  0  0  0
 16 45  1  0  0  0  0
 16 46  1  0  0  0  0
 17 18  1  0  0  0  0
 17 47  1  0  0  0  0
 17 48  1  0  0  0  0
 18 49  1  0  0  0  0
 18 50  1  0  0  0  0
 19 20  1  0  0  0  0
 19 52  1  0  0  0  0
 19 53  1  0  0  0  0
 20 21  2  0  0  0  0
 20 25  1  0  0  0  0
 21 22  1  0  0  0  0
 21 54  1  0  0  0  0
 22 23  2  0  0  0  0
 22 55  1  0  0  0  0
 23 24  1  0  0  0  0
 23 26  1  0  0  0  0
 24 25  2  0  0  0  0
 24 56  1  0  0  0  0
 25 57  1  0  0  0  0
M  CHG  2   2   1   4   1
M  END
>  <number_of_rotatable_bonds>
9

>  <lm5_entropy_jk>
23.819977463858184

>  <deltaG_kcalmol>
-9.04

>  <charge>
2

$$$$
