1T3R
 OpenBabel11252210453D

 75 78  0  0  1  0  0  0  0  0999 V2000
   -0.3330    3.0760   11.3410 N   0  0  0  0  0  0  0  0  0  0  0  0
    0.5280    2.0230   11.6320 C   0  0  0  0  0  0  0  0  0  0  0  0
    1.7000    1.8030   10.8660 C   0  0  0  0  0  0  0  0  0  0  0  0
    2.6090    0.8270   11.2540 C   0  0  0  0  0  0  0  0  0  0  0  0
    2.3800    0.0410   12.3900 C   0  0  0  0  0  0  0  0  0  0  0  0
    1.1940    0.2310   13.1210 C   0  0  0  0  0  0  0  0  0  0  0  0
    0.2740    1.1990   12.7600 C   0  0  0  0  0  0  0  0  0  0  0  0
    3.5140   -1.0930   12.9930 S   0  0  0  0  0  0  0  0  0  0  0  0
    4.3700   -1.6920   11.9700 O   0  0  0  0  0  0  0  0  0  0  0  0
    2.8140   -2.0330   13.8650 O   0  0  0  0  0  0  0  0  0  0  0  0
    4.5360   -0.1430   13.9740 N   0  0  0  0  0  0  0  0  0  0  0  0
    5.4700    0.8420   13.3800 C   0  0  0  0  0  0  0  0  0  0  0  0
    6.9800    0.4990   13.5450 C   0  0  0  0  0  0  0  0  0  0  0  0
    7.3490   -0.8500   12.9140 C   0  0  0  0  0  0  0  0  0  0  0  0
    7.8020    1.6440   12.9250 C   0  0  0  0  0  0  0  0  0  0  0  0
    4.3110   -0.1050   15.4260 C   0  0  0  0  0  0  0  0  0  0  0  0
    5.2730   -1.0260   16.2280 C   0  0  1  0  0  0  0  0  0  0  0  0
    5.1760   -0.5600   17.5900 O   0  0  0  0  0  0  0  0  0  0  0  0
    4.9280   -2.5420   16.2240 C   0  0  1  0  0  0  0  0  0  0  0  0
    6.0240   -3.3060   16.8900 N   0  0  0  0  0  0  0  0  0  0  0  0
    7.0970   -3.7980   16.1690 C   0  0  0  0  0  0  0  0  0  0  0  0
    7.2130   -3.8960   14.9630 O   0  0  0  0  0  0  0  0  0  0  0  0
    8.0770   -4.1810   17.0930 O   0  0  0  0  0  0  0  0  0  0  0  0
    8.9430   -5.3180   16.8290 C   0  0  1  0  0  0  0  0  0  0  0  0
   10.1460   -5.0620   17.7660 C   0  0  0  0  0  0  0  0  0  0  0  0
   10.0020   -5.9040   18.9370 O   0  0  0  0  0  0  0  0  0  0  0  0
    8.9790   -6.8900   18.7170 C   0  0  1  0  0  0  0  0  0  0  0  0
    7.9790   -6.6620   19.7140 O   0  0  0  0  0  0  0  0  0  0  0  0
    6.7470   -6.2010   19.0900 C   0  0  0  0  0  0  0  0  0  0  0  0
    6.8300   -6.6610   17.6260 C   0  0  0  0  0  0  0  0  0  0  0  0
    8.3360   -6.6540   17.3220 C   0  0  1  0  0  0  0  0  0  0  0  0
    3.5990   -2.8850   16.9240 C   0  0  0  0  0  0  0  0  0  0  0  0
    3.5490   -5.2670   17.7580 C   0  0  0  0  0  0  0  0  0  0  0  0
    3.2790   -6.6250   17.5610 C   0  0  0  0  0  0  0  0  0  0  0  0
    2.7070   -7.0620   16.3640 C   0  0  0  0  0  0  0  0  0  0  0  0
    2.4000   -6.1350   15.3610 C   0  0  0  0  0  0  0  0  0  0  0  0
    2.6930   -4.7830   15.5390 C   0  0  0  0  0  0  0  0  0  0  0  0
    3.2680   -4.3420   16.7430 C   0  0  0  0  0  0  0  0  0  0  0  0
   -0.3010    3.5100   10.4170 H   0  0  0  0  0  0  0  0  0  0  0  0
   -1.2290    3.1250   11.8550 H   0  0  0  0  0  0  0  0  0  0  0  0
    1.8930    2.4080    9.9770 H   0  0  0  0  0  0  0  0  0  0  0  0
    3.5190    0.6880   10.6590 H   0  0  0  0  0  0  0  0  0  0  0  0
    0.9890   -0.4040   13.9910 H   0  0  0  0  0  0  0  0  0  0  0  0
   -0.6410    1.3490   13.3310 H   0  0  0  0  0  0  0  0  0  0  0  0
    5.2930    1.8440   13.8590 H   0  0  0  0  0  0  0  0  0  0  0  0
    5.2540    0.9400   12.2850 H   0  0  0  0  0  0  0  0  0  0  0  0
    7.2220    0.4690   14.6380 H   0  0  0  0  0  0  0  0  0  0  0  0
    8.4490   -0.9930   12.9700 H   0  0  0  0  0  0  0  0  0  0  0  0
    6.8540   -1.6760   13.4660 H   0  0  0  0  0  0  0  0  0  0  0  0
    7.0360   -0.8740   11.8500 H   0  0  0  0  0  0  0  0  0  0  0  0
    8.8800    1.4950   13.1490 H   0  0  0  0  0  0  0  0  0  0  0  0
    7.6690    1.6840   11.8230 H   0  0  0  0  0  0  0  0  0  0  0  0
    7.4950    2.6240   13.3560 H   0  0  0  0  0  0  0  0  0  0  0  0
    3.2490   -0.3920   15.6480 H   0  0  0  0  0  0  0  0  0  0  0  0
    4.4820    0.9370   15.8070 H   0  0  0  0  0  0  0  0  0  0  0  0
    6.3230   -0.8800   15.8810 H   0  0  0  0  0  0  0  0  0  0  0  0
    6.0420   -0.0490   17.7850 H   0  0  0  0  0  0  0  0  0  0  0  0
    4.8700   -2.8740   15.1470 H   0  0  0  0  0  0  0  0  0  0  0  0
    6.0760   -3.2680   17.9220 H   0  0  0  0  0  0  0  0  0  0  0  0
    9.2050   -5.3320   15.7510 H   0  0  0  0  0  0  0  0  0  0  0  0
   10.1710   -4.0240   18.1520 H   0  0  0  0  0  0  0  0  0  0  0  0
   11.1080   -5.3590   17.2920 H   0  0  0  0  0  0  0  0  0  0  0  0
    9.4320   -7.8740   18.9360 H   0  0  0  0  0  0  0  0  0  0  0  0
    6.7260   -5.0950   19.1760 H   0  0  0  0  0  0  0  0  0  0  0  0
    5.9410   -6.6910   19.6700 H   0  0  0  0  0  0  0  0  0  0  0  0
    6.2430   -6.0060   16.9530 H   0  0  0  0  0  0  0  0  0  0  0  0
    6.4330   -7.6990   17.5140 H   0  0  0  0  0  0  0  0  0  0  0  0
    8.5920   -7.4670   16.6040 H   0  0  0  0  0  0  0  0  0  0  0  0
    2.7840   -2.2610   16.4750 H   0  0  0  0  0  0  0  0  0  0  0  0
    3.6530   -2.6220   18.0070 H   0  0  0  0  0  0  0  0  0  0  0  0
    3.9840   -4.9330   18.7000 H   0  0  0  0  0  0  0  0  0  0  0  0
    3.5190   -7.3430   18.3480 H   0  0  0  0  0  0  0  0  0  0  0  0
    2.5070   -8.1240   16.2200 H   0  0  0  0  0  0  0  0  0  0  0  0
    1.9280   -6.4700   14.4410 H   0  0  0  0  0  0  0  0  0  0  0  0
    2.4710   -4.0480   14.7530 H   0  0  0  0  0  0  0  0  0  0  0  0
  1  2  1  0  0  0  0
  1 39  1  0  0  0  0
  1 40  1  0  0  0  0
  2  3  2  0  0  0  0
  2  7  1  0  0  0  0
  3  4  1  0  0  0  0
  3 41  1  0  0  0  0
  4  5  2  0  0  0  0
  4 42  1  0  0  0  0
  5  6  1  0  0  0  0
  5  8  1  0  0  0  0
  6  7  2  0  0  0  0
  6 43  1  0  0  0  0
  7 44  1  0  0  0  0
  8  9  2  0  0  0  0
  8 10  2  0  0  0  0
  8 11  1  0  0  0  0
 11 12  1  0  0  0  0
 11 16  1  0  0  0  0
 12 13  1  0  0  0  0
 12 45  1  0  0  0  0
 12 46  1  0  0  0  0
 13 14  1  0  0  0  0
 13 15  1  0  0  0  0
 13 47  1  0  0  0  0
 14 48  1  0  0  0  0
 14 49  1  0  0  0  0
 14 50  1  0  0  0  0
 15 51  1  0  0  0  0
 15 52  1  0  0  0  0
 15 53  1  0  0  0  0
 16 17  1  0  0  0  0
 16 54  1  0  0  0  0
 16 55  1  0  0  0  0
 17 18  1  0  0  0  0
 17 19  1  0  0  0  0
 17 56  1  6  0  0  0
 18 57  1  0  0  0  0
 19 20  1  0  0  0  0
 19 32  1  0  0  0  0
 19 58  1  6  0  0  0
 20 21  1  0  0  0  0
 20 59  1  0  0  0  0
 21 22  2  0  0  0  0
 21 23  1  0  0  0  0
 23 24  1  0  0  0  0
 24 25  1  0  0  0  0
 24 31  1  0  0  0  0
 24 60  1  6  0  0  0
 25 26  1  0  0  0  0
 25 61  1  0  0  0  0
 25 62  1  0  0  0  0
 26 27  1  0  0  0  0
 27 28  1  0  0  0  0
 27 31  1  0  0  0  0
 27 63  1  1  0  0  0
 28 29  1  0  0  0  0
 29 30  1  0  0  0  0
 29 64  1  0  0  0  0
 29 65  1  0  0  0  0
 30 31  1  0  0  0  0
 30 66  1  0  0  0  0
 30 67  1  0  0  0  0
 31 68  1  6  0  0  0
 32 38  1  0  0  0  0
 32 69  1  0  0  0  0
 32 70  1  0  0  0  0
 33 34  2  0  0  0  0
 33 38  1  0  0  0  0
 33 71  1  0  0  0  0
 34 35  1  0  0  0  0
 34 72  1  0  0  0  0
 35 36  2  0  0  0  0
 35 73  1  0  0  0  0
 36 37  1  0  0  0  0
 36 74  1  0  0  0  0
 37 38  2  0  0  0  0
 37 75  1  0  0  0  0
M  END
>  <charge>
0

>  <KI_NM>
0.0053

>  <number_of_rotatable_bonds>
13

>  <lm5_entropy_jk>
43.32186921337585

>  <ligand_crystal_conformation>
A

$$$$
