3rk7.pdb
 OpenBabel11252210453D

 37 39  0  0  1  0  0  0  0  0999 V2000
   64.4000  154.6610  -48.4460 N   0  0  0  0  0  0  0  0  0  0  0  0
   65.8090  154.3710  -50.3260 N   0  0  0  0  0  0  0  0  0  0  0  0
   67.3420  153.5660  -52.0030 N   0  0  0  0  0  0  0  0  0  0  0  0
   70.8160  149.9780  -47.5420 N   0  0  0  0  0  0  0  0  0  0  0  0
   61.7000  153.0550  -42.6790 N   0  0  0  0  0  0  0  0  0  0  0  0
   63.8330  154.4210  -47.1560 C   0  0  0  0  0  0  0  0  0  0  0  0
   65.4930  154.0760  -49.0390 C   0  0  0  0  0  0  0  0  0  0  0  0
   66.9250  153.5800  -50.7140 C   0  0  0  0  0  0  0  0  0  0  0  0
   67.5110  152.7730  -49.7090 C   0  0  0  0  0  0  0  0  0  0  0  0
   68.5850  151.8580  -49.9150 C   0  0  0  0  0  0  0  0  0  0  0  0
   68.9820  150.9430  -48.8010 C   0  0  0  0  0  0  0  0  0  0  0  0
   68.0700  150.0960  -48.1640 C   0  0  0  0  0  0  0  0  0  0  0  0
   68.5470  149.1890  -47.2130 C   0  0  0  0  0  0  0  0  0  0  0  0
   69.9220  149.1430  -46.9400 C   0  0  0  0  0  0  0  0  0  0  0  0
   70.3460  150.8710  -48.4460 C   0  0  0  0  0  0  0  0  0  0  0  0
   62.9230  155.4090  -46.7070 C   0  0  0  0  0  0  0  0  0  0  0  0
   62.3680  155.3160  -45.4360 C   0  0  0  0  0  0  0  0  0  0  0  0
   62.7050  154.2400  -44.5950 C   0  0  0  0  0  0  0  0  0  0  0  0
   63.5410  153.2270  -45.0770 C   0  0  0  0  0  0  0  0  0  0  0  0
   64.0950  153.2980  -46.3610 C   0  0  0  0  0  0  0  0  0  0  0  0
   62.2120  154.2470  -43.1820 C   0  0  0  0  0  0  0  0  0  0  0  0
   69.1990  151.7900  -50.9790 O   0  0  0  0  0  0  0  0  0  0  0  0
   62.2100  155.2570  -42.4850 O   0  0  0  0  0  0  0  0  0  0  0  0
   66.6480  152.9130  -48.2220 S   0  0  0  0  0  0  0  0  0  0  0  0
   63.7970  155.2630  -49.0660 H   0  0  0  0  0  0  0  0  0  0  0  0
   66.9370  154.1980  -52.7170 H   0  0  0  0  0  0  0  0  0  0  0  0
   68.1780  153.0190  -52.2620 H   0  0  0  0  0  0  0  0  0  0  0  0
   67.0000  150.1170  -48.3920 H   0  0  0  0  0  0  0  0  0  0  0  0
   67.8580  148.5210  -46.6880 H   0  0  0  0  0  0  0  0  0  0  0  0
   70.3170  148.4130  -46.2170 H   0  0  0  0  0  0  0  0  0  0  0  0
   71.0760  151.5550  -48.9070 H   0  0  0  0  0  0  0  0  0  0  0  0
   62.6510  156.2450  -47.3550 H   0  0  0  0  0  0  0  0  0  0  0  0
   61.6630  156.0870  -45.1050 H   0  0  0  0  0  0  0  0  0  0  0  0
   63.7780  152.3580  -44.4540 H   0  0  0  0  0  0  0  0  0  0  0  0
   64.6990  152.4580  -46.7070 H   0  0  0  0  0  0  0  0  0  0  0  0
   61.8020  152.1570  -43.2050 H   0  0  0  0  0  0  0  0  0  0  0  0
   61.4600  152.9500  -41.6930 H   0  0  0  0  0  0  0  0  0  0  0  0
  1  6  1  0  0  0  0
  1  7  1  0  0  0  0
  1 25  1  0  0  0  0
  2  7  2  0  0  0  0
  2  8  1  0  0  0  0
  3  8  1  0  0  0  0
  3 26  1  0  0  0  0
  3 27  1  0  0  0  0
  4 14  2  0  0  0  0
  4 15  1  0  0  0  0
  5 21  1  0  0  0  0
  5 36  1  0  0  0  0
  5 37  1  0  0  0  0
  6 16  2  0  0  0  0
  6 20  1  0  0  0  0
  7 24  1  0  0  0  0
  8  9  2  0  0  0  0
  9 24  1  0  0  0  0
 10  9  1  0  0  0  0
 10 11  1  0  0  0  0
 10 22  2  0  0  0  0
 11 12  1  0  0  0  0
 11 15  2  0  0  0  0
 12 13  2  0  0  0  0
 12 28  1  0  0  0  0
 13 14  1  0  0  0  0
 13 29  1  0  0  0  0
 14 30  1  0  0  0  0
 15 31  1  0  0  0  0
 16 17  1  0  0  0  0
 16 32  1  0  0  0  0
 17 18  2  0  0  0  0
 17 33  1  0  0  0  0
 18 19  1  0  0  0  0
 18 21  1  0  0  0  0
 19 20  2  0  0  0  0
 19 34  1  0  0  0  0
 20 35  1  0  0  0  0
 21 23  2  0  0  0  0
M  END
>  <lm5_entropy_jk>
19.089102203703476

>  <number_of_rotatable_bonds>
5

>  <IC50_NM>
200

>  <charge>
0

$$$$
