3SQQ
 OpenBabel11252210453D

 42 44  0  0  0  0  0  0  0  0999 V2000
   65.8920  154.4550  -50.5640 N   0  0  0  0  0  0  0  0  0  0  0  0
   64.5660  154.9740  -48.6630 N   0  0  0  0  0  0  0  0  0  0  0  0
   67.4440  153.5600  -52.1770 N   0  0  0  0  0  0  0  0  0  0  0  0
   62.0890  152.8780  -42.7610 N   0  0  0  0  0  0  0  0  0  0  0  0
   67.4920  152.7770  -49.8760 C   0  0  0  0  0  0  0  0  0  0  0  0
   66.9800  153.5950  -50.9080 C   0  0  0  0  0  0  0  0  0  0  0  0
   65.5980  154.2700  -49.2590 C   0  0  0  0  0  0  0  0  0  0  0  0
   63.8590  154.6360  -47.4690 C   0  0  0  0  0  0  0  0  0  0  0  0
   68.3680  151.6570  -50.0760 C   0  0  0  0  0  0  0  0  0  0  0  0
   68.6130  150.7200  -48.9360 C   0  0  0  0  0  0  0  0  0  0  0  0
   69.9130  150.2330  -48.6830 C   0  0  0  0  0  0  0  0  0  0  0  0
   70.1170  149.3820  -47.5820 C   0  0  0  0  0  0  0  0  0  0  0  0
   69.0510  148.9800  -46.7780 C   0  0  0  0  0  0  0  0  0  0  0  0
   67.7570  149.4210  -47.0660 C   0  0  0  0  0  0  0  0  0  0  0  0
   67.5430  150.2800  -48.1430 C   0  0  0  0  0  0  0  0  0  0  0  0
   64.0320  153.4530  -46.7360 C   0  0  0  0  0  0  0  0  0  0  0  0
   63.2710  153.2440  -45.5830 C   0  0  0  0  0  0  0  0  0  0  0  0
   62.3150  154.1780  -45.1670 C   0  0  0  0  0  0  0  0  0  0  0  0
   62.1470  155.3610  -45.9030 C   0  0  0  0  0  0  0  0  0  0  0  0
   62.9070  155.5920  -47.0430 C   0  0  0  0  0  0  0  0  0  0  0  0
   71.0630  150.6020  -49.5600 C   0  0  0  0  0  0  0  0  0  0  0  0
   68.8850  151.4590  -51.1770 O   0  0  0  0  0  0  0  0  0  0  0  0
   60.8570  155.0440  -43.1250 O   0  0  0  0  0  0  0  0  0  0  0  0
   60.1230  153.0860  -44.4640 O   0  0  0  0  0  0  0  0  0  0  0  0
   66.7280  153.1340  -48.3760 S   0  0  0  0  0  0  0  0  0  0  0  0
   61.2340  153.8360  -43.8730 S   0  0  0  0  0  0  0  0  0  0  0  0
   63.9960  155.5890  -49.3040 H   0  0  0  0  0  0  0  0  0  0  0  0
   67.0430  154.1530  -52.9240 H   0  0  0  0  0  0  0  0  0  0  0  0
   68.2030  152.8990  -52.4170 H   0  0  0  0  0  0  0  0  0  0  0  0
   62.1810  151.8530  -43.0090 H   0  0  0  0  0  0  0  0  0  0  0  0
   61.9560  153.0060  -41.7490 H   0  0  0  0  0  0  0  0  0  0  0  0
   71.1110  149.0030  -47.3580 H   0  0  0  0  0  0  0  0  0  0  0  0
   69.2190  148.3070  -45.9320 H   0  0  0  0  0  0  0  0  0  0  0  0
   66.9150  149.0950  -46.4500 H   0  0  0  0  0  0  0  0  0  0  0  0
   66.5160  150.5770  -48.3590 H   0  0  0  0  0  0  0  0  0  0  0  0
   64.7250  152.6670  -47.0370 H   0  0  0  0  0  0  0  0  0  0  0  0
   63.4480  152.3230  -45.0160 H   0  0  0  0  0  0  0  0  0  0  0  0
   61.4130  156.1220  -45.6070 H   0  0  0  0  0  0  0  0  0  0  0  0
   62.7460  156.5050  -47.6180 H   0  0  0  0  0  0  0  0  0  0  0  0
   70.7550  150.6020  -50.6440 H   0  0  0  0  0  0  0  0  0  0  0  0
   71.8960  149.8740  -49.4570 H   0  0  0  0  0  0  0  0  0  0  0  0
   71.4120  151.6320  -49.3150 H   0  0  0  0  0  0  0  0  0  0  0  0
  1  7  2  0  0  0  0
  2  8  1  0  0  0  0
  2 27  1  0  0  0  0
  3  6  1  0  0  0  0
  3 28  1  0  0  0  0
  3 29  1  0  0  0  0
  4 30  1  0  0  0  0
  4 31  1  0  0  0  0
  5 25  1  0  0  0  0
  6  1  1  0  0  0  0
  6  5  2  0  0  0  0
  7  2  1  0  0  0  0
  7 25  1  0  0  0  0
  8 20  2  0  0  0  0
  8 16  1  0  0  0  0
  9  5  1  0  0  0  0
  9 10  1  0  0  0  0
 10 11  2  0  0  0  0
 10 15  1  0  0  0  0
 11 12  1  0  0  0  0
 12 13  2  0  0  0  0
 12 32  1  0  0  0  0
 13 33  1  0  0  0  0
 14 13  1  0  0  0  0
 14 34  1  0  0  0  0
 15 14  2  0  0  0  0
 15 35  1  0  0  0  0
 16 17  2  0  0  0  0
 16 36  1  0  0  0  0
 17 18  1  0  0  0  0
 17 37  1  0  0  0  0
 18 26  1  0  0  0  0
 19 18  2  0  0  0  0
 19 38  1  0  0  0  0
 20 19  1  0  0  0  0
 20 39  1  0  0  0  0
 21 11  1  0  0  0  0
 21 40  1  0  0  0  0
 21 41  1  0  0  0  0
 21 42  1  0  0  0  0
 22  9  2  0  0  0  0
 24 26  2  0  0  0  0
 26 23  2  0  0  0  0
 26  4  1  0  0  0  0
M  END
>  <lm5_entropy_jk>
31.418959509749985

>  <number_of_rotatable_bonds>
5

>  <IC50_NM>
4800

>  <charge>
0

$$$$
