3R9D
 OpenBabel11252210453D

 41 43  0  0  0  0  0  0  0  0999 V2000
   65.8170  154.4660  -50.5760 N   0  0  0  0  0  0  0  0  0  0  0  0
   64.4550  155.0580  -48.6970 N   0  0  0  0  0  0  0  0  0  0  0  0
   68.6440  151.1090  -48.6610 N   0  0  0  0  0  0  0  0  0  0  0  0
   67.4070  153.5080  -52.1140 N   0  0  0  0  0  0  0  0  0  0  0  0
   62.0310  152.9720  -42.7700 N   0  0  0  0  0  0  0  0  0  0  0  0
   67.4870  152.9320  -49.7450 C   0  0  0  0  0  0  0  0  0  0  0  0
   66.9510  153.6330  -50.8410 C   0  0  0  0  0  0  0  0  0  0  0  0
   65.4840  154.3400  -49.2760 C   0  0  0  0  0  0  0  0  0  0  0  0
   63.7590  154.7310  -47.4920 C   0  0  0  0  0  0  0  0  0  0  0  0
   68.5880  152.0010  -49.7680 C   0  0  0  0  0  0  0  0  0  0  0  0
   62.8300  155.6980  -47.0460 C   0  0  0  0  0  0  0  0  0  0  0  0
   62.0780  155.4680  -45.9000 C   0  0  0  0  0  0  0  0  0  0  0  0
   62.2400  154.2770  -45.1750 C   0  0  0  0  0  0  0  0  0  0  0  0
   63.1800  153.3350  -45.6050 C   0  0  0  0  0  0  0  0  0  0  0  0
   63.9260  153.5410  -46.7690 C   0  0  0  0  0  0  0  0  0  0  0  0
   69.6870  150.2010  -48.3420 C   0  0  0  0  0  0  0  0  0  0  0  0
   69.4760  149.3590  -47.2250 C   0  0  0  0  0  0  0  0  0  0  0  0
   70.4480  148.4350  -46.8520 C   0  0  0  0  0  0  0  0  0  0  0  0
   71.6500  148.3360  -47.5630 C   0  0  0  0  0  0  0  0  0  0  0  0
   71.8250  149.1910  -48.6530 C   0  0  0  0  0  0  0  0  0  0  0  0
   70.8840  150.1270  -49.0740 C   0  0  0  0  0  0  0  0  0  0  0  0
   69.4210  151.9450  -50.6630 O   0  0  0  0  0  0  0  0  0  0  0  0
   60.0530  153.1720  -44.4650 O   0  0  0  0  0  0  0  0  0  0  0  0
   60.7840  155.1330  -43.1280 O   0  0  0  0  0  0  0  0  0  0  0  0
   66.5910  153.2590  -48.3090 S   0  0  0  0  0  0  0  0  0  0  0  0
   61.1620  153.9250  -43.8770 S   0  0  0  0  0  0  0  0  0  0  0  0
   72.9570  149.0940  -49.3520 F   0  0  0  0  0  0  0  0  0  0  0  0
   63.9000  155.6870  -49.3350 H   0  0  0  0  0  0  0  0  0  0  0  0
   67.8260  151.0580  -48.0240 H   0  0  0  0  0  0  0  0  0  0  0  0
   67.0330  154.1180  -52.8670 H   0  0  0  0  0  0  0  0  0  0  0  0
   68.2870  153.0090  -52.2880 H   0  0  0  0  0  0  0  0  0  0  0  0
   62.1320  151.9490  -43.0230 H   0  0  0  0  0  0  0  0  0  0  0  0
   61.8900  153.0920  -41.7580 H   0  0  0  0  0  0  0  0  0  0  0  0
   62.6810  156.6200  -47.6110 H   0  0  0  0  0  0  0  0  0  0  0  0
   61.3570  156.2360  -45.5900 H   0  0  0  0  0  0  0  0  0  0  0  0
   63.3570  152.4090  -45.0470 H   0  0  0  0  0  0  0  0  0  0  0  0
   64.5890  152.7350  -47.0890 H   0  0  0  0  0  0  0  0  0  0  0  0
   68.5490  149.4100  -46.6470 H   0  0  0  0  0  0  0  0  0  0  0  0
   70.2560  147.7670  -46.0050 H   0  0  0  0  0  0  0  0  0  0  0  0
   72.3630  147.5630  -47.2810 H   0  0  0  0  0  0  0  0  0  0  0  0
   71.0630  150.7690  -49.9480 H   0  0  0  0  0  0  0  0  0  0  0  0
  1  8  2  0  0  0  0
  2  9  1  0  0  0  0
  2 28  1  0  0  0  0
  3 16  1  0  0  0  0
  3 29  1  0  0  0  0
  4  7  1  0  0  0  0
  4 30  1  0  0  0  0
  4 31  1  0  0  0  0
  5 32  1  0  0  0  0
  5 33  1  0  0  0  0
  6 25  1  0  0  0  0
  7  1  1  0  0  0  0
  7  6  2  0  0  0  0
  8  2  1  0  0  0  0
  8 25  1  0  0  0  0
  9 11  2  0  0  0  0
  9 15  1  0  0  0  0
 10  6  1  0  0  0  0
 10  3  1  0  0  0  0
 11 12  1  0  0  0  0
 11 34  1  0  0  0  0
 12 13  2  0  0  0  0
 12 35  1  0  0  0  0
 13 26  1  0  0  0  0
 14 13  1  0  0  0  0
 14 36  1  0  0  0  0
 15 14  2  0  0  0  0
 15 37  1  0  0  0  0
 16 17  2  0  0  0  0
 17 18  1  0  0  0  0
 17 38  1  0  0  0  0
 18 39  1  0  0  0  0
 19 18  2  0  0  0  0
 19 40  1  0  0  0  0
 20 19  1  0  0  0  0
 21 20  2  0  0  0  0
 21 16  1  0  0  0  0
 21 41  1  0  0  0  0
 22 10  2  0  0  0  0
 23 26  2  0  0  0  0
 26 24  2  0  0  0  0
 26  5  1  0  0  0  0
 27 20  1  0  0  0  0
M  END
>  <lm5_entropy_jk>
21.052089499889224

>  <number_of_rotatable_bonds>
6

>  <IC50_NM>
71000

>  <charge>
0

$$$$
