model22a
 OpenBabel11252210453D

 88 92  0  0  1  0  0  0  0  0999 V2000
    2.6110    2.9800   10.6270 C   0  0  0  0  0  0  0  0  0  0  0  0
    2.6760    1.7850   11.3380 O   0  0  0  0  0  0  0  0  0  0  0  0
    3.7000    3.8890   10.5260 C   0  0  0  0  0  0  0  0  0  0  0  0
    5.3740    0.7340   16.7150 O   0  0  0  0  0  0  0  0  0  0  0  0
    3.8770   -0.6090   12.5240 O   0  0  0  0  0  0  0  0  0  0  0  0
    3.6020    5.0040    9.6820 C   0  0  0  0  0  0  0  0  0  0  0  0
    4.8760    0.7850   14.0060 N   0  0  0  0  0  0  0  0  0  0  0  0
    2.4480    5.2310    8.9230 C   0  0  0  0  0  0  0  0  0  0  0  0
    3.4980   -5.0980   16.1990 C   0  0  0  0  0  0  0  0  0  0  0  0
    6.0390   -3.3730   16.2160 N   0  0  0  0  0  0  0  0  0  0  0  0
    1.3720    4.3430    9.0280 C   0  0  0  0  0  0  0  0  0  0  0  0
    3.9000   -6.1510   17.0290 C   0  0  0  0  0  0  0  0  0  0  0  0
    7.0400   -2.9520   14.2160 O   0  0  0  0  0  0  0  0  0  0  0  0
    1.4390    3.2420    9.8940 C   0  0  0  0  0  0  0  0  0  0  0  0
    3.7400   -7.4810   16.6090 C   0  0  0  0  0  0  0  0  0  0  0  0
    0.2380    2.3390   10.0410 C   0  0  0  0  0  0  0  0  0  0  0  0
    3.1740   -7.7470   15.3530 C   0  0  0  0  0  0  0  0  0  0  0  0
    5.0190    3.7070   11.2380 C   0  0  0  0  0  0  0  0  0  0  0  0
    2.7450   -6.6860   14.5360 C   0  0  0  0  0  0  0  0  0  0  0  0
    2.9060   -5.3640   14.9620 C   0  0  0  0  0  0  0  0  0  0  0  0
    3.0900    1.7030   12.7180 C   0  0  0  0  0  0  0  0  0  0  0  0
    3.9550    0.4930   13.0480 C   0  0  0  0  0  0  0  0  0  0  0  0
    5.8930   -0.1220   14.4930 C   0  0  1  0  0  0  0  0  0  0  0  0
    8.1340    0.0580   10.5690 C   0  0  0  0  0  0  0  0  0  0  0  0
    8.1630    1.3830   10.1160 C   0  0  0  0  0  0  0  0  0  0  0  0
    7.9370    2.4320   11.0160 C   0  0  0  0  0  0  0  0  0  0  0  0
    7.6530    2.1520   12.3650 C   0  0  0  0  0  0  0  0  0  0  0  0
    7.5810    0.8270   12.8120 C   0  0  0  0  0  0  0  0  0  0  0  0
    7.8260   -0.2190   11.9130 C   0  0  0  0  0  0  0  0  0  0  0  0
    7.2720    0.5310   14.2660 C   0  0  0  0  0  0  0  0  0  0  0  0
    5.6740   -0.4560   15.9990 C   0  0  2  0  0  0  0  0  0  0  0  0
    4.5150   -1.4140   16.2930 C   0  0  0  0  0  0  0  0  0  0  0  0
    4.7020   -2.8780   15.8800 C   0  0  2  0  0  0  0  0  0  0  0  0
    7.0980   -3.4260   15.3330 C   0  0  0  0  0  0  0  0  0  0  0  0
    8.3310   -4.2280   15.7540 C   0  0  1  0  0  0  0  0  0  0  0  0
    8.8690   -3.8990   17.0600 O   0  0  0  0  0  0  0  0  0  0  0  0
    3.6400   -3.6750   16.6530 C   0  0  0  0  0  0  0  0  0  0  0  0
    9.1820   -5.0160   17.7800 C   0  0  0  0  0  0  0  0  0  0  0  0
    9.6730   -5.0340   18.8820 O   0  0  0  0  0  0  0  0  0  0  0  0
    8.6180   -6.0880   17.1540 N   0  0  0  0  0  0  0  0  0  0  0  0
    8.0290   -5.7180   15.8810 C   0  0  0  0  0  0  0  0  0  0  0  0
    8.5010   -7.3870   17.6910 C   0  0  0  0  0  0  0  0  0  0  0  0
    7.2330   -7.9460   17.8970 C   0  0  0  0  0  0  0  0  0  0  0  0
    7.0950   -9.2410   18.4230 C   0  0  0  0  0  0  0  0  0  0  0  0
    8.2440   -9.9840   18.7390 C   0  0  0  0  0  0  0  0  0  0  0  0
    9.5190   -9.4300   18.5360 C   0  0  0  0  0  0  0  0  0  0  0  0
    9.6400   -8.1290   18.0160 C   0  0  0  0  0  0  0  0  0  0  0  0
   -0.0250    2.2100   11.0960 H   0  0  0  0  0  0  0  0  0  0  0  0
    0.4740    1.3450    9.6450 H   0  0  0  0  0  0  0  0  0  0  0  0
    5.2660    2.6420   11.3190 H   0  0  0  0  0  0  0  0  0  0  0  0
    4.4360    5.6990    9.5990 H   0  0  0  0  0  0  0  0  0  0  0  0
    2.3880    6.0970    8.2600 H   0  0  0  0  0  0  0  0  0  0  0  0
    4.8840    1.7180   14.4040 H   0  0  0  0  0  0  0  0  0  0  0  0
    6.1990   -3.7310   17.1480 H   0  0  0  0  0  0  0  0  0  0  0  0
    4.3590   -1.3840   17.3760 H   0  0  0  0  0  0  0  0  0  0  0  0
    4.3280   -5.9370   18.0060 H   0  0  0  0  0  0  0  0  0  0  0  0
    4.0510   -8.3040   17.2520 H   0  0  0  0  0  0  0  0  0  0  0  0
    3.0660   -8.7800   15.0250 H   0  0  0  0  0  0  0  0  0  0  0  0
    2.2970   -6.8740   13.5660 H   0  0  0  0  0  0  0  0  0  0  0  0
    2.5600   -4.5450   14.3370 H   0  0  0  0  0  0  0  0  0  0  0  0
    2.2270    1.6650   13.3860 H   0  0  0  0  0  0  0  0  0  0  0  0
    5.8360   -1.0510   13.9160 H   0  0  0  0  0  0  0  0  0  0  0  0
    3.6980    2.5640   12.9890 H   0  0  0  0  0  0  0  0  0  0  0  0
    0.4810    4.5130    8.4300 H   0  0  0  0  0  0  0  0  0  0  0  0
   -0.6380    2.7440    9.5220 H   0  0  0  0  0  0  0  0  0  0  0  0
    5.0180    4.1480   12.2400 H   0  0  0  0  0  0  0  0  0  0  0  0
    5.8330    4.1760   10.6790 H   0  0  0  0  0  0  0  0  0  0  0  0
    6.1780    0.8480   17.2860 H   0  0  0  0  0  0  0  0  0  0  0  0
    8.3580   -0.7450    9.8750 H   0  0  0  0  0  0  0  0  0  0  0  0
    8.3750    1.6040    9.0720 H   0  0  0  0  0  0  0  0  0  0  0  0
    8.0020    3.4630   10.6720 H   0  0  0  0  0  0  0  0  0  0  0  0
    7.4780    2.9670   13.0630 H   0  0  0  0  0  0  0  0  0  0  0  0
    7.7900   -1.2440   12.2690 H   0  0  0  0  0  0  0  0  0  0  0  0
    8.0330   -0.1370   14.6750 H   0  0  0  0  0  0  0  0  0  0  0  0
    7.3480    1.4410   14.8730 H   0  0  0  0  0  0  0  0  0  0  0  0
    6.6040   -0.9030   16.3880 H   0  0  0  0  0  0  0  0  0  0  0  0
    3.5990   -1.0140   15.8450 H   0  0  0  0  0  0  0  0  0  0  0  0
    4.5340   -2.9870   14.7920 H   0  0  0  0  0  0  0  0  0  0  0  0
    9.0840   -4.0430   14.9750 H   0  0  0  0  0  0  0  0  0  0  0  0
    3.8530   -3.6490   17.7270 H   0  0  0  0  0  0  0  0  0  0  0  0
    2.6640   -3.1870   16.5520 H   0  0  0  0  0  0  0  0  0  0  0  0
    8.4900   -6.2920   15.0640 H   0  0  0  0  0  0  0  0  0  0  0  0
    6.9430   -5.9120   15.8870 H   0  0  0  0  0  0  0  0  0  0  0  0
    6.3510   -7.3690   17.6420 H   0  0  0  0  0  0  0  0  0  0  0  0
    6.1040   -9.6670   18.5870 H   0  0  0  0  0  0  0  0  0  0  0  0
    8.1450  -10.9890   19.1510 H   0  0  0  0  0  0  0  0  0  0  0  0
   10.4100  -10.0040   18.7900 H   0  0  0  0  0  0  0  0  0  0  0  0
   10.6260   -7.6950   17.8680 H   0  0  0  0  0  0  0  0  0  0  0  0
  1  3  1  0  0  0  0
  1  2  1  0  0  0  0
  2 21  1  0  0  0  0
  3 18  1  0  0  0  0
  4 68  1  0  0  0  0
  5 22  2  0  0  0  0
  6 51  1  0  0  0  0
  6  3  2  0  0  0  0
  7 23  1  0  0  0  0
  7 53  1  0  0  0  0
  8  6  1  0  0  0  0
  9 37  1  0  0  0  0
  9 12  1  0  0  0  0
 10 54  1  0  0  0  0
 11  8  2  0  0  0  0
 11 14  1  0  0  0  0
 12 56  1  0  0  0  0
 13 34  2  0  0  0  0
 14  1  2  0  0  0  0
 15 12  2  0  0  0  0
 15 57  1  0  0  0  0
 16 14  1  0  0  0  0
 16 48  1  0  0  0  0
 17 15  1  0  0  0  0
 18 67  1  0  0  0  0
 18 66  1  0  0  0  0
 19 20  1  0  0  0  0
 19 17  2  0  0  0  0
 20  9  2  0  0  0  0
 21 63  1  0  0  0  0
 21 22  1  0  0  0  0
 21 61  1  0  0  0  0
 22  7  1  0  0  0  0
 23 62  1  6  0  0  0
 23 31  1  0  0  0  0
 24 29  1  0  0  0  0
 25 24  2  0  0  0  0
 25 26  1  0  0  0  0
 26 27  2  0  0  0  0
 27 28  1  0  0  0  0
 27 72  1  0  0  0  0
 28 30  1  0  0  0  0
 29 73  1  0  0  0  0
 29 28  2  0  0  0  0
 30 74  1  0  0  0  0
 30 23  1  0  0  0  0
 30 75  1  0  0  0  0
 31 76  1  1  0  0  0
 31  4  1  0  0  0  0
 31 32  1  0  0  0  0
 32 55  1  0  0  0  0
 33 78  1  6  0  0  0
 33 32  1  0  0  0  0
 33 10  1  0  0  0  0
 33 37  1  0  0  0  0
 34 35  1  0  0  0  0
 34 10  1  0  0  0  0
 35 79  1  6  0  0  0
 35 36  1  0  0  0  0
 36 38  1  0  0  0  0
 37 80  1  0  0  0  0
 38 39  2  0  0  0  0
 40 42  1  0  0  0  0
 40 38  1  0  0  0  0
 41 35  1  0  0  0  0
 41 83  1  0  0  0  0
 41 40  1  0  0  0  0
 42 47  1  0  0  0  0
 43 42  2  0  0  0  0
 43 44  1  0  0  0  0
 44 45  2  0  0  0  0
 45 46  1  0  0  0  0
 45 86  1  0  0  0  0
 46 87  1  0  0  0  0
 47 88  1  0  0  0  0
 47 46  2  0  0  0  0
 49 16  1  0  0  0  0
 50 18  1  0  0  0  0
 52  8  1  0  0  0  0
 58 17  1  0  0  0  0
 59 19  1  0  0  0  0
 60 20  1  0  0  0  0
 64 11  1  0  0  0  0
 65 16  1  0  0  0  0
 69 24  1  0  0  0  0
 70 25  1  0  0  0  0
 71 26  1  0  0  0  0
 77 32  1  0  0  0  0
 81 37  1  0  0  0  0
 82 41  1  0  0  0  0
 84 43  1  0  0  0  0
 85 44  1  0  0  0  0
M  END
>  <charge>
0

>  <KI_NM>
7.28

>  <number_of_rotatable_bonds>
16

>  <lm5_entropy_jk>
39.45594585765423

>  <ligand_crystal_conformation>
B

$$$$
