model22a
 OpenBabel11252210453D

 88 92  0  0  1  0  0  0  0  0999 V2000
    1.7670    2.5400   11.8460 C   0  0  0  0  0  0  0  0  0  0  0  0
    2.4670    1.6010   12.5750 O   0  0  0  0  0  0  0  0  0  0  0  0
    2.4260    3.6740   11.3170 C   0  0  0  0  0  0  0  0  0  0  0  0
    5.2160    0.5670   16.5830 O   0  0  0  0  0  0  0  0  0  0  0  0
    3.9860   -1.5790   12.4180 O   0  0  0  0  0  0  0  0  0  0  0  0
    1.7230    4.5590   10.4910 C   0  0  0  0  0  0  0  0  0  0  0  0
    4.5250    0.1350   13.7940 N   0  0  0  0  0  0  0  0  0  0  0  0
    0.3650    4.3450   10.2070 C   0  0  0  0  0  0  0  0  0  0  0  0
    3.4300   -5.3080   17.0320 C   0  0  0  0  0  0  0  0  0  0  0  0
    5.8240   -3.6390   16.5740 N   0  0  0  0  0  0  0  0  0  0  0  0
   -0.2920    3.2320   10.7540 C   0  0  0  0  0  0  0  0  0  0  0  0
    4.0160   -6.0370   18.0780 C   0  0  0  0  0  0  0  0  0  0  0  0
    6.8020   -3.5260   14.5320 O   0  0  0  0  0  0  0  0  0  0  0  0
    0.4010    2.3260   11.5680 C   0  0  0  0  0  0  0  0  0  0  0  0
    3.9470   -7.4400   18.0900 C   0  0  0  0  0  0  0  0  0  0  0  0
   -0.3320    1.1100   12.1020 C   0  0  0  0  0  0  0  0  0  0  0  0
    3.2800   -8.1120   17.0530 C   0  0  0  0  0  0  0  0  0  0  0  0
    3.8900    3.9590   11.5910 C   0  0  0  0  0  0  0  0  0  0  0  0
    2.6810   -7.3820   16.0140 C   0  0  0  0  0  0  0  0  0  0  0  0
    2.7640   -5.9800   16.0010 C   0  0  0  0  0  0  0  0  0  0  0  0
    3.2050    0.6050   11.8200 C   0  0  0  0  0  0  0  0  0  0  0  0
    3.9170   -0.3960   12.6960 C   0  0  0  0  0  0  0  0  0  0  0  0
    5.7030   -0.4660   14.4330 C   0  0  1  0  0  0  0  0  0  0  0  0
    7.9060   -0.0570   10.4840 C   0  0  0  0  0  0  0  0  0  0  0  0
    7.6370    1.2140    9.9500 C   0  0  0  0  0  0  0  0  0  0  0  0
    7.1530    2.2370   10.7800 C   0  0  0  0  0  0  0  0  0  0  0  0
    6.9280    1.9800   12.1420 C   0  0  0  0  0  0  0  0  0  0  0  0
    7.1770    0.7060   12.6760 C   0  0  0  0  0  0  0  0  0  0  0  0
    7.6690   -0.3100   11.8460 C   0  0  0  0  0  0  0  0  0  0  0  0
    6.9340    0.4400   14.1480 C   0  0  0  0  0  0  0  0  0  0  0  0
    5.5150   -0.6820   15.9690 C   0  0  2  0  0  0  0  0  0  0  0  0
    4.3750   -1.6200   16.4010 C   0  0  0  0  0  0  0  0  0  0  0  0
    4.5120   -3.1370   16.1770 C   0  0  2  0  0  0  0  0  0  0  0  0
    6.8190   -3.9420   15.6750 C   0  0  0  0  0  0  0  0  0  0  0  0
    7.9220   -4.9020   16.1480 C   0  0  1  0  0  0  0  0  0  0  0  0
    8.5700   -4.5050   17.3870 O   0  0  0  0  0  0  0  0  0  0  0  0
    3.4440   -3.8000   17.0670 C   0  0  0  0  0  0  0  0  0  0  0  0
    8.9700   -5.5880   18.1170 C   0  0  0  0  0  0  0  0  0  0  0  0
    9.6350   -5.5450   19.1330 O   0  0  0  0  0  0  0  0  0  0  0  0
    8.3510   -6.7020   17.5910 N   0  0  0  0  0  0  0  0  0  0  0  0
    7.4760   -6.3430   16.4660 C   0  0  0  0  0  0  0  0  0  0  0  0
    8.5660   -8.0490   17.9910 C   0  0  0  0  0  0  0  0  0  0  0  0
    7.5280   -8.9890   17.8950 C   0  0  0  0  0  0  0  0  0  0  0  0
    7.7330  -10.3300   18.2600 C   0  0  0  0  0  0  0  0  0  0  0  0
    8.9910  -10.7370   18.7320 C   0  0  0  0  0  0  0  0  0  0  0  0
   10.0390   -9.8080   18.8300 C   0  0  0  0  0  0  0  0  0  0  0  0
    9.8250   -8.4730   18.4490 C   0  0  0  0  0  0  0  0  0  0  0  0
    0.0130    0.8660   13.1120 H   0  0  0  0  0  0  0  0  0  0  0  0
   -0.1480    0.2370   11.4690 H   0  0  0  0  0  0  0  0  0  0  0  0
    4.5050    3.6490   10.7390 H   0  0  0  0  0  0  0  0  0  0  0  0
    2.2440    5.4030   10.0410 H   0  0  0  0  0  0  0  0  0  0  0  0
   -0.1700    5.0290    9.5470 H   0  0  0  0  0  0  0  0  0  0  0  0
    4.3240    1.1110   13.9620 H   0  0  0  0  0  0  0  0  0  0  0  0
    5.9350   -3.9930   17.5140 H   0  0  0  0  0  0  0  0  0  0  0  0
    4.2670   -1.4610   17.4770 H   0  0  0  0  0  0  0  0  0  0  0  0
    4.5070   -5.5140   18.8970 H   0  0  0  0  0  0  0  0  0  0  0  0
    4.3950   -8.0030   18.9090 H   0  0  0  0  0  0  0  0  0  0  0  0
    3.2150   -9.2010   17.0630 H   0  0  0  0  0  0  0  0  0  0  0  0
    2.1530   -7.9020   15.2200 H   0  0  0  0  0  0  0  0  0  0  0  0
    2.2840   -5.4130   15.2080 H   0  0  0  0  0  0  0  0  0  0  0  0
    3.9760    1.0710   11.1980 H   0  0  0  0  0  0  0  0  0  0  0  0
    5.8840   -1.4510   13.9810 H   0  0  0  0  0  0  0  0  0  0  0  0
    2.5440    0.0330   11.1630 H   0  0  0  0  0  0  0  0  0  0  0  0
   -1.3400    3.0520   10.5270 H   0  0  0  0  0  0  0  0  0  0  0  0
   -1.4100    1.2900   12.1560 H   0  0  0  0  0  0  0  0  0  0  0  0
    4.2440    3.4090   12.4700 H   0  0  0  0  0  0  0  0  0  0  0  0
    4.0820    5.0230   11.7710 H   0  0  0  0  0  0  0  0  0  0  0  0
    6.0830    0.8200   16.9970 H   0  0  0  0  0  0  0  0  0  0  0  0
    8.3030   -0.8400    9.8440 H   0  0  0  0  0  0  0  0  0  0  0  0
    7.8100    1.4120    8.8930 H   0  0  0  0  0  0  0  0  0  0  0  0
    6.9650    3.2300   10.3690 H   0  0  0  0  0  0  0  0  0  0  0  0
    6.5630    2.7750   12.7890 H   0  0  0  0  0  0  0  0  0  0  0  0
    7.8760   -1.2920   12.2640 H   0  0  0  0  0  0  0  0  0  0  0  0
    7.8290   -0.0080   14.5940 H   0  0  0  0  0  0  0  0  0  0  0  0
    6.8140    1.3900   14.6820 H   0  0  0  0  0  0  0  0  0  0  0  0
    6.4640   -1.0760   16.3720 H   0  0  0  0  0  0  0  0  0  0  0  0
    3.4400   -1.2680   15.9500 H   0  0  0  0  0  0  0  0  0  0  0  0
    4.3270   -3.3820   15.1130 H   0  0  0  0  0  0  0  0  0  0  0  0
    8.6600   -4.9110   15.3320 H   0  0  0  0  0  0  0  0  0  0  0  0
    3.5730   -3.4800   18.1080 H   0  0  0  0  0  0  0  0  0  0  0  0
    2.4520   -3.4260   16.7870 H   0  0  0  0  0  0  0  0  0  0  0  0
    7.6190   -7.0240   15.6130 H   0  0  0  0  0  0  0  0  0  0  0  0
    6.4150   -6.3820   16.7670 H   0  0  0  0  0  0  0  0  0  0  0  0
    6.5520   -8.6800   17.5320 H   0  0  0  0  0  0  0  0  0  0  0  0
    6.9180  -11.0520   18.1820 H   0  0  0  0  0  0  0  0  0  0  0  0
    9.1540  -11.7750   19.0250 H   0  0  0  0  0  0  0  0  0  0  0  0
   11.0160  -10.1210   19.2000 H   0  0  0  0  0  0  0  0  0  0  0  0
   10.6480   -7.7670   18.5080 H   0  0  0  0  0  0  0  0  0  0  0  0
  1  3  1  0  0  0  0
  1  2  1  0  0  0  0
  2 21  1  0  0  0  0
  3 18  1  0  0  0  0
  4 68  1  0  0  0  0
  5 22  2  0  0  0  0
  6 51  1  0  0  0  0
  6  3  2  0  0  0  0
  7 23  1  0  0  0  0
  7 53  1  0  0  0  0
  8  6  1  0  0  0  0
  9 37  1  0  0  0  0
  9 12  1  0  0  0  0
 10 54  1  0  0  0  0
 11  8  2  0  0  0  0
 11 14  1  0  0  0  0
 12 56  1  0  0  0  0
 13 34  2  0  0  0  0
 14  1  2  0  0  0  0
 15 12  2  0  0  0  0
 15 57  1  0  0  0  0
 16 14  1  0  0  0  0
 16 48  1  0  0  0  0
 17 15  1  0  0  0  0
 18 67  1  0  0  0  0
 18 66  1  0  0  0  0
 19 20  1  0  0  0  0
 19 17  2  0  0  0  0
 20  9  2  0  0  0  0
 21 63  1  0  0  0  0
 21 22  1  0  0  0  0
 21 61  1  0  0  0  0
 22  7  1  0  0  0  0
 23 62  1  6  0  0  0
 23 31  1  0  0  0  0
 24 29  1  0  0  0  0
 25 24  2  0  0  0  0
 25 26  1  0  0  0  0
 26 27  2  0  0  0  0
 27 28  1  0  0  0  0
 27 72  1  0  0  0  0
 28 30  1  0  0  0  0
 29 73  1  0  0  0  0
 29 28  2  0  0  0  0
 30 74  1  0  0  0  0
 30 23  1  0  0  0  0
 30 75  1  0  0  0  0
 31 76  1  1  0  0  0
 31  4  1  0  0  0  0
 31 32  1  0  0  0  0
 32 55  1  0  0  0  0
 33 78  1  6  0  0  0
 33 32  1  0  0  0  0
 33 10  1  0  0  0  0
 33 37  1  0  0  0  0
 34 35  1  0  0  0  0
 34 10  1  0  0  0  0
 35 79  1  6  0  0  0
 35 36  1  0  0  0  0
 36 38  1  0  0  0  0
 37 80  1  0  0  0  0
 38 39  2  0  0  0  0
 40 42  1  0  0  0  0
 40 38  1  0  0  0  0
 41 35  1  0  0  0  0
 41 83  1  0  0  0  0
 41 40  1  0  0  0  0
 42 47  1  0  0  0  0
 43 42  2  0  0  0  0
 43 44  1  0  0  0  0
 44 45  2  0  0  0  0
 45 46  1  0  0  0  0
 45 86  1  0  0  0  0
 46 87  1  0  0  0  0
 47 88  1  0  0  0  0
 47 46  2  0  0  0  0
 49 16  1  0  0  0  0
 50 18  1  0  0  0  0
 52  8  1  0  0  0  0
 58 17  1  0  0  0  0
 59 19  1  0  0  0  0
 60 20  1  0  0  0  0
 64 11  1  0  0  0  0
 65 16  1  0  0  0  0
 69 24  1  0  0  0  0
 70 25  1  0  0  0  0
 71 26  1  0  0  0  0
 77 32  1  0  0  0  0
 81 37  1  0  0  0  0
 82 41  1  0  0  0  0
 84 43  1  0  0  0  0
 85 44  1  0  0  0  0
M  END
>  <charge>
0

>  <KI_NM>
7.28

>  <number_of_rotatable_bonds>
16

>  <lm5_entropy_jk>
39.45594585765423

>  <ligand_crystal_conformation>
B

$$$$
