5LAB
 OpenBabel11252210453D

 41 41  0  0  0  0  0  0  0  0999 V2000
    7.5670   26.8300    2.4320 N   0  0  0  0  0  0  0  0  0  0  0  0
    5.6940   25.4640    5.0070 C   0  0  0  0  0  0  0  0  0  0  0  0
    8.5380   23.8750    1.4290 N   0  0  0  0  0  0  0  0  0  0  0  0
    4.6920   21.9800    5.7080 O   0  0  0  0  0  0  0  0  0  0  0  0
    7.9830   26.5490    4.0830 S   0  0  0  0  0  0  0  0  0  0  0  0
    4.8630   24.4170    5.3990 C   0  0  0  0  0  0  0  0  0  0  0  0
    9.3970   26.1730    4.1670 O   0  0  0  0  0  0  0  0  0  0  0  0
    5.3400   23.1020    5.2840 C   0  0  0  0  0  0  0  0  0  0  0  0
    7.6080   27.7260    4.8550 O   0  0  0  0  0  0  0  0  0  0  0  0
    6.6050   22.8350    4.7140 C   0  0  0  0  0  0  0  0  0  0  0  0
    8.0730   22.6890    0.8180 O   0  0  0  0  0  0  0  0  0  0  0  0
    7.4210   23.8960    4.3490 C   0  0  0  0  0  0  0  0  0  0  0  0
    6.8610   24.8270    0.2160 O   0  0  0  0  0  0  0  0  0  0  0  0
    6.9840   25.2250    4.5120 C   0  0  0  0  0  0  0  0  0  0  0  0
    3.3460   22.0900    6.2470 C   0  0  0  0  0  0  0  0  0  0  0  0
    6.6900   27.9900    2.1260 C   0  0  0  0  0  0  0  0  0  0  0  0
    8.4630   26.3340    1.3770 C   0  0  0  0  0  0  0  0  0  0  0  0
    7.8680   25.0090    0.8770 C   0  0  0  0  0  0  0  0  0  0  0  0
    7.3210   29.3500    1.7140 C   0  0  0  0  0  0  0  0  0  0  0  0
    8.6830   29.5970    2.3630 C   0  0  0  0  0  0  0  0  0  0  0  0
    7.3830   29.5320    0.1890 C   0  0  0  0  0  0  0  0  0  0  0  0
    5.3130   26.4880    5.1020 H   0  0  0  0  0  0  0  0  0  0  0  0
    9.5810   23.8360    1.4980 H   0  0  0  0  0  0  0  0  0  0  0  0
    3.8590   24.6290    5.7580 H   0  0  0  0  0  0  0  0  0  0  0  0
    6.9250   21.8050    4.5420 H   0  0  0  0  0  0  0  0  0  0  0  0
    8.3230   21.9410    1.5690 H   0  0  0  0  0  0  0  0  0  0  0  0
    8.4100   23.6760    3.9240 H   0  0  0  0  0  0  0  0  0  0  0  0
    3.1070   21.0150    6.4300 H   0  0  0  0  0  0  0  0  0  0  0  0
    2.6670   22.5340    5.4880 H   0  0  0  0  0  0  0  0  0  0  0  0
    3.3640   22.6740    7.1910 H   0  0  0  0  0  0  0  0  0  0  0  0
    5.9790   27.6740    1.3190 H   0  0  0  0  0  0  0  0  0  0  0  0
    6.0930   28.1880    3.0600 H   0  0  0  0  0  0  0  0  0  0  0  0
    8.5310   27.0400    0.5010 H   0  0  0  0  0  0  0  0  0  0  0  0
    9.5160   26.1850    1.7610 H   0  0  0  0  0  0  0  0  0  0  0  0
    6.6120   30.1400    2.0970 H   0  0  0  0  0  0  0  0  0  0  0  0
    9.4120   28.8340    2.0210 H   0  0  0  0  0  0  0  0  0  0  0  0
    8.5960   29.5580    3.4730 H   0  0  0  0  0  0  0  0  0  0  0  0
    9.0610   30.6040    2.0730 H   0  0  0  0  0  0  0  0  0  0  0  0
    8.1310   28.8600   -0.2790 H   0  0  0  0  0  0  0  0  0  0  0  0
    7.6780   30.5830   -0.0470 H   0  0  0  0  0  0  0  0  0  0  0  0
    6.3860   29.3470   -0.2670 H   0  0  0  0  0  0  0  0  0  0  0  0
  1 17  1  0  0  0  0
  1 16  1  0  0  0  0
  1  5  1  0  0  0  0
  2 14  2  0  0  0  0
  2  6  1  0  0  0  0
  2 22  1  0  0  0  0
  3 11  1  0  0  0  0
  3 18  1  0  0  0  0
  3 23  1  0  0  0  0
  4  8  1  0  0  0  0
  4 15  1  0  0  0  0
  5  7  2  0  0  0  0
  5 14  1  0  0  0  0
  5  9  2  0  0  0  0
  6  8  2  0  0  0  0
  6 24  1  0  0  0  0
  8 10  1  0  0  0  0
 10 12  2  0  0  0  0
 10 25  1  0  0  0  0
 11 26  1  0  0  0  0
 12 14  1  0  0  0  0
 12 27  1  0  0  0  0
 13 18  2  0  0  0  0
 15 28  1  0  0  0  0
 15 29  1  0  0  0  0
 15 30  1  0  0  0  0
 16 19  1  0  0  0  0
 16 31  1  0  0  0  0
 16 32  1  0  0  0  0
 17 18  1  0  0  0  0
 17 33  1  0  0  0  0
 17 34  1  0  0  0  0
 19 21  1  0  0  0  0
 19 20  1  0  0  0  0
 19 35  1  0  0  0  0
 20 36  1  0  0  0  0
 20 37  1  0  0  0  0
 20 38  1  0  0  0  0
 21 39  1  0  0  0  0
 21 40  1  0  0  0  0
 21 41  1  0  0  0  0
M  END
>  <lm5_entropy_jk>
45.66589139851115

>  <number_of_rotatable_bonds>
8

>  <deltaG_kcalmol>
-11.42

>  <charge>
0

$$$$
