3QTS
 OpenBabel11252210453D

 38 40  0  0  1  0  0  0  0  0999 V2000
   65.5040  154.3120  -49.8160 N   0  0  0  0  0  0  0  0  0  0  0  0
   67.2360  153.5950  -51.1820 N   0  0  0  0  0  0  0  0  0  0  0  0
   63.8330  154.6680  -48.2410 N   0  0  0  0  0  0  0  0  0  0  0  0
   68.8100  149.2390  -45.5060 C   0  0  0  0  0  0  0  0  0  0  0  0
   68.3380  150.5380  -45.2960 C   0  0  0  0  0  0  0  0  0  0  0  0
   68.1890  151.3990  -46.3800 C   0  0  0  0  0  0  0  0  0  0  0  0
   68.9320  149.6750  -47.8960 C   0  0  0  0  0  0  0  0  0  0  0  0
   69.1280  148.8130  -46.8030 C   0  0  0  0  0  0  0  0  0  0  0  0
   67.8730  150.1490  -42.8750 C   0  0  0  0  0  0  0  0  0  0  0  0
   68.4340  150.9830  -47.7120 C   0  0  0  0  0  0  0  0  0  0  0  0
   68.1970  151.8870  -48.9290 C   0  0  0  0  0  0  0  0  0  0  0  0
   67.0170  152.7720  -48.9360 C   0  0  0  0  0  0  0  0  0  0  0  0
   66.6410  153.5600  -49.9830 C   0  0  0  0  0  0  0  0  0  0  0  0
   64.9660  154.0260  -48.6440 C   0  0  0  0  0  0  0  0  0  0  0  0
   63.0370  154.6700  -47.1030 C   0  0  0  0  0  0  0  0  0  0  0  0
   62.9760  153.5910  -46.2000 C   0  0  0  0  0  0  0  0  0  0  0  0
   62.1710  153.6620  -45.0500 C   0  0  0  0  0  0  0  0  0  0  0  0
   61.4000  154.8070  -44.8040 C   0  0  0  0  0  0  0  0  0  0  0  0
   61.4260  155.8740  -45.7130 C   0  0  0  0  0  0  0  0  0  0  0  0
   62.2390  155.7950  -46.8570 C   0  0  0  0  0  0  0  0  0  0  0  0
   68.9560  151.8570  -49.8870 O   0  0  0  0  0  0  0  0  0  0  0  0
   67.9890  151.0030  -44.0430 O   0  0  0  0  0  0  0  0  0  0  0  0
   65.7820  152.8020  -47.7140 S   0  0  0  0  0  0  0  0  0  0  0  0
   68.9330  148.5520  -44.6760 H   0  0  0  0  0  0  0  0  0  0  0  0
   66.8800  154.1670  -51.9360 H   0  0  0  0  0  0  0  0  0  0  0  0
   68.0600  153.0160  -51.2740 H   0  0  0  0  0  0  0  0  0  0  0  0
   67.8690  152.4070  -46.1660 H   0  0  0  0  0  0  0  0  0  0  0  0
   63.5020  155.2990  -48.9660 H   0  0  0  0  0  0  0  0  0  0  0  0
   69.1560  149.3250  -48.9020 H   0  0  0  0  0  0  0  0  0  0  0  0
   69.5100  147.8060  -46.9600 H   0  0  0  0  0  0  0  0  0  0  0  0
   67.4640  150.7070  -42.0210 H   0  0  0  0  0  0  0  0  0  0  0  0
   68.8490  149.7450  -42.5760 H   0  0  0  0  0  0  0  0  0  0  0  0
   67.1900  149.3090  -43.0700 H   0  0  0  0  0  0  0  0  0  0  0  0
   63.5360  152.6800  -46.3780 H   0  0  0  0  0  0  0  0  0  0  0  0
   62.1560  152.8340  -44.3410 H   0  0  0  0  0  0  0  0  0  0  0  0
   60.7850  154.8690  -43.9060 H   0  0  0  0  0  0  0  0  0  0  0  0
   60.8180  156.7630  -45.5340 H   0  0  0  0  0  0  0  0  0  0  0  0
   62.2530  156.6240  -47.5590 H   0  0  0  0  0  0  0  0  0  0  0  0
  1 13  1  0  0  0  0
  1 14  2  0  0  0  0
  2 13  1  0  0  0  0
  2 25  1  0  0  0  0
  2 26  1  0  0  0  0
  3 14  1  0  0  0  0
  3 15  1  0  0  0  0
  3 28  1  0  0  0  0
  4  5  2  0  0  0  0
  4  8  1  0  0  0  0
  4 24  1  0  0  0  0
  5  6  1  0  0  0  0
  5 22  1  0  0  0  0
  6 10  2  0  0  0  0
  6 27  1  0  0  0  0
  7  8  2  0  0  0  0
  7 10  1  0  0  0  0
  7 29  1  0  0  0  0
  8 30  1  0  0  0  0
  9 22  1  0  0  0  0
  9 31  1  0  0  0  0
  9 32  1  0  0  0  0
  9 33  1  0  0  0  0
 11 10  1  0  0  0  0
 11 12  1  0  0  0  0
 11 21  2  0  0  0  0
 12 13  2  0  0  0  0
 12 23  1  0  0  0  0
 14 23  1  0  0  0  0
 15 16  2  0  0  0  0
 15 20  1  0  0  0  0
 16 17  1  0  0  0  0
 16 34  1  0  0  0  0
 17 18  2  0  0  0  0
 17 35  1  0  0  0  0
 18 19  1  0  0  0  0
 18 36  1  0  0  0  0
 19 20  2  0  0  0  0
 19 37  1  0  0  0  0
 20 38  1  0  0  0  0
M  END
>  <lm5_entropy_jk>
31.97375871552738

>  <number_of_rotatable_bonds>
5

>  <IC50_NM>
3100

>  <charge>
0

$$$$
