model13d
 OpenBabel11252210453D

 90 93  0  0  1  0  0  0  0  0999 V2000
    6.0900    3.6030    6.0250 C   0  0  0  0  0  0  0  0  0  0  0  0
    7.1750   -6.2150   17.0060 N   0  0  0  0  0  0  0  0  0  0  0  0
    7.8360   -6.0160   19.1940 O   0  0  0  0  0  0  0  0  0  0  0  0
    7.1730   -8.2090   18.4390 C   0  0  0  0  0  0  0  0  0  0  0  0
    6.4200   -4.1800   14.6220 O   0  0  0  0  0  0  0  0  0  0  0  0
    7.4420   -6.7390   18.2890 C   0  0  0  0  0  0  0  0  0  0  0  0
    5.6230   -3.4720   16.6310 N   0  0  0  0  0  0  0  0  0  0  0  0
    7.3950    0.7370   12.7810 C   0  0  0  0  0  0  0  0  0  0  0  0
    4.6520    0.2820   13.6800 N   0  0  0  0  0  0  0  0  0  0  0  0
    5.1940    0.7150   16.4400 O   0  0  0  0  0  0  0  0  0  0  0  0
    7.1210    2.0230   12.2880 C   0  0  0  0  0  0  0  0  0  0  0  0
    4.7490   -1.0750   11.8470 O   0  0  0  0  0  0  0  0  0  0  0  0
    7.3120    2.3100   10.9340 C   0  0  0  0  0  0  0  0  0  0  0  0
    7.7700    1.3160   10.0630 C   0  0  0  0  0  0  0  0  0  0  0  0
    8.0740    0.0430   10.5580 C   0  0  0  0  0  0  0  0  0  0  0  0
    7.9010   -0.2440   11.9140 C   0  0  0  0  0  0  0  0  0  0  0  0
    7.6620   -4.8700   16.6310 C   0  0  2  0  0  0  0  0  0  0  0  0
    6.5240   -4.1850   15.8390 C   0  0  0  0  0  0  0  0  0  0  0  0
    4.3360   -2.9650   16.0880 C   0  0  1  0  0  0  0  0  0  0  0  0
    8.9820   -4.9350   15.8080 C   0  0  0  0  0  0  0  0  0  0  0  0
    9.4150   -3.5250   15.3900 C   0  0  0  0  0  0  0  0  0  0  0  0
   10.0750   -5.6200   16.6420 C   0  0  0  0  0  0  0  0  0  0  0  0
    2.2310   -7.0520   15.6230 C   0  0  0  0  0  0  0  0  0  0  0  0
    2.8340   -7.8680   16.5860 C   0  0  0  0  0  0  0  0  0  0  0  0
    3.5520   -7.2860   17.6350 C   0  0  0  0  0  0  0  0  0  0  0  0
    3.6620   -5.8970   17.7240 C   0  0  0  0  0  0  0  0  0  0  0  0
    3.0580   -5.0750   16.7590 C   0  0  0  0  0  0  0  0  0  0  0  0
    2.3460   -5.6620   15.7020 C   0  0  0  0  0  0  0  0  0  0  0  0
    3.1490   -3.5810   16.8820 C   0  0  0  0  0  0  0  0  0  0  0  0
    4.2430   -1.4310   16.2360 C   0  0  0  0  0  0  0  0  0  0  0  0
    5.4700   -0.5980   15.8720 C   0  0  1  0  0  0  0  0  0  0  0  0
    5.7800   -0.4060   14.3620 C   0  0  2  0  0  0  0  0  0  0  0  0
    4.3350   -0.0540   12.3740 C   0  0  0  0  0  0  0  0  0  0  0  0
    3.3160    0.8450   11.6370 C   0  0  1  0  0  0  0  0  0  0  0  0
    3.1060    2.0830   12.3870 O   0  0  0  0  0  0  0  0  0  0  0  0
    7.0990    0.4020   14.2140 C   0  0  0  0  0  0  0  0  0  0  0  0
    3.3140    3.2080   11.5780 C   0  0  0  0  0  0  0  0  0  0  0  0
    3.1070    4.3130   12.0020 O   0  0  0  0  0  0  0  0  0  0  0  0
    3.7460    2.7750   10.3110 N   0  0  0  0  0  0  0  0  0  0  0  0
    3.7960    1.2860   10.2350 C   0  0  0  0  0  0  0  0  0  0  0  0
    3.9860    3.6180    9.1810 C   0  0  0  0  0  0  0  0  0  0  0  0
    4.8930    3.2200    8.1840 C   0  0  0  0  0  0  0  0  0  0  0  0
    5.1290    4.0660    7.0920 C   0  0  0  0  0  0  0  0  0  0  0  0
    4.4740    5.2950    6.9810 C   0  0  0  0  0  0  0  0  0  0  0  0
    3.5720    5.6820    7.9810 C   0  0  0  0  0  0  0  0  0  0  0  0
    3.3190    4.8570    9.0740 C   0  0  0  0  0  0  0  0  0  0  0  0
    7.2570    3.1130    6.4840 F   0  0  0  0  0  0  0  0  0  0  0  0
    5.6120    2.6110    5.2510 F   0  0  0  0  0  0  0  0  0  0  0  0
    6.4860    4.5280    5.1330 F   0  0  0  0  0  0  0  0  0  0  0  0
    7.0350   -6.8800   16.2240 H   0  0  0  0  0  0  0  0  0  0  0  0
    6.4340   -8.5960   17.6930 H   0  0  0  0  0  0  0  0  0  0  0  0
    8.1230   -8.7820   18.2980 H   0  0  0  0  0  0  0  0  0  0  0  0
    6.7810   -8.4340   19.4610 H   0  0  0  0  0  0  0  0  0  0  0  0
    5.6830   -3.4850   17.6620 H   0  0  0  0  0  0  0  0  0  0  0  0
    4.4070    1.2000   14.0650 H   0  0  0  0  0  0  0  0  0  0  0  0
    6.0700    0.9680   16.9170 H   0  0  0  0  0  0  0  0  0  0  0  0
    6.7620    2.8020   12.9630 H   0  0  0  0  0  0  0  0  0  0  0  0
    7.1000    3.3110   10.5530 H   0  0  0  0  0  0  0  0  0  0  0  0
    7.8900    1.5350    9.0020 H   0  0  0  0  0  0  0  0  0  0  0  0
    8.4400   -0.7270    9.8810 H   0  0  0  0  0  0  0  0  0  0  0  0
    8.1570   -1.2310   12.3000 H   0  0  0  0  0  0  0  0  0  0  0  0
    7.8600   -4.2870   17.5720 H   0  0  0  0  0  0  0  0  0  0  0  0
    4.2590   -3.2560   15.0080 H   0  0  0  0  0  0  0  0  0  0  0  0
    8.7990   -5.5460   14.8890 H   0  0  0  0  0  0  0  0  0  0  0  0
   10.3970   -3.5740   14.8710 H   0  0  0  0  0  0  0  0  0  0  0  0
    8.6690   -3.0780   14.6960 H   0  0  0  0  0  0  0  0  0  0  0  0
    9.5230   -2.8670   16.2780 H   0  0  0  0  0  0  0  0  0  0  0  0
   11.0240   -5.6340   16.0730 H   0  0  0  0  0  0  0  0  0  0  0  0
   10.2430   -5.0710   17.5940 H   0  0  0  0  0  0  0  0  0  0  0  0
    9.7970   -6.6720   16.8690 H   0  0  0  0  0  0  0  0  0  0  0  0
    1.6760   -7.5010   14.8040 H   0  0  0  0  0  0  0  0  0  0  0  0
    2.7480   -8.9550   16.5230 H   0  0  0  0  0  0  0  0  0  0  0  0
    4.0270   -7.9190   18.3880 H   0  0  0  0  0  0  0  0  0  0  0  0
    4.2230   -5.4470   18.5470 H   0  0  0  0  0  0  0  0  0  0  0  0
    1.8690   -5.0340   14.9520 H   0  0  0  0  0  0  0  0  0  0  0  0
    2.2060   -3.1060   16.5210 H   0  0  0  0  0  0  0  0  0  0  0  0
    3.2550   -3.3050   17.9630 H   0  0  0  0  0  0  0  0  0  0  0  0
    4.0750   -1.2250   17.3270 H   0  0  0  0  0  0  0  0  0  0  0  0
    3.3500   -1.0790   15.6690 H   0  0  0  0  0  0  0  0  0  0  0  0
    6.3820   -1.0060   16.3770 H   0  0  0  0  0  0  0  0  0  0  0  0
    5.9280   -1.4240   13.9070 H   0  0  0  0  0  0  0  0  0  0  0  0
    2.3130    0.3460   11.6160 H   0  0  0  0  0  0  0  0  0  0  0  0
    7.0270    1.3340   14.8330 H   0  0  0  0  0  0  0  0  0  0  0  0
    7.9300   -0.1980   14.6640 H   0  0  0  0  0  0  0  0  0  0  0  0
    3.1040    0.9180    9.4300 H   0  0  0  0  0  0  0  0  0  0  0  0
    4.8420    0.9450   10.0130 H   0  0  0  0  0  0  0  0  0  0  0  0
    5.4060    2.2570    8.2500 H   0  0  0  0  0  0  0  0  0  0  0  0
    4.6360    5.9620    6.1290 H   0  0  0  0  0  0  0  0  0  0  0  0
    2.6000    5.1870    9.8300 H   0  0  0  0  0  0  0  0  0  0  0  0
    3.0530    6.6450    7.8960 H   0  0  0  0  0  0  0  0  0  0  0  0
  1 43  1  0  0  0  0
  1 47  1  0  0  0  0
  1 48  1  0  0  0  0
  1 49  1  0  0  0  0
  2  6  1  0  0  0  0
  2 17  1  0  0  0  0
  2 50  1  0  0  0  0
  3  6  2  0  0  0  0
  4  6  1  0  0  0  0
  4 51  1  0  0  0  0
  4 52  1  0  0  0  0
  4 53  1  0  0  0  0
  5 18  2  0  0  0  0
  7 18  1  0  0  0  0
  7 19  1  0  0  0  0
  7 54  1  0  0  0  0
  8 11  2  0  0  0  0
  8 16  1  0  0  0  0
  8 36  1  0  0  0  0
  9 32  1  0  0  0  0
  9 33  1  0  0  0  0
  9 55  1  0  0  0  0
 10 31  1  0  0  0  0
 10 56  1  0  0  0  0
 11 13  1  0  0  0  0
 11 57  1  0  0  0  0
 12 33  2  0  0  0  0
 13 14  2  0  0  0  0
 13 58  1  0  0  0  0
 14 15  1  0  0  0  0
 14 59  1  0  0  0  0
 15 16  2  0  0  0  0
 15 60  1  0  0  0  0
 16 61  1  0  0  0  0
 17 18  1  0  0  0  0
 17 20  1  0  0  0  0
 17 62  1  1  0  0  0
 19 29  1  0  0  0  0
 19 30  1  0  0  0  0
 19 63  1  6  0  0  0
 20 21  1  0  0  0  0
 20 22  1  0  0  0  0
 20 64  1  0  0  0  0
 21 65  1  0  0  0  0
 21 66  1  0  0  0  0
 21 67  1  0  0  0  0
 22 68  1  0  0  0  0
 22 69  1  0  0  0  0
 22 70  1  0  0  0  0
 23 24  2  0  0  0  0
 23 28  1  0  0  0  0
 23 71  1  0  0  0  0
 24 25  1  0  0  0  0
 24 72  1  0  0  0  0
 25 26  2  0  0  0  0
 25 73  1  0  0  0  0
 26 27  1  0  0  0  0
 26 74  1  0  0  0  0
 27 28  2  0  0  0  0
 27 29  1  0  0  0  0
 28 75  1  0  0  0  0
 29 76  1  0  0  0  0
 29 77  1  0  0  0  0
 30 31  1  0  0  0  0
 30 78  1  0  0  0  0
 30 79  1  0  0  0  0
 31 32  1  0  0  0  0
 31 80  1  1  0  0  0
 32 36  1  0  0  0  0
 32 81  1  6  0  0  0
 33 34  1  0  0  0  0
 34 35  1  0  0  0  0
 34 40  1  0  0  0  0
 34 82  1  6  0  0  0
 35 37  1  0  0  0  0
 36 83  1  0  0  0  0
 36 84  1  0  0  0  0
 37 38  2  0  0  0  0
 37 39  1  0  0  0  0
 39 40  1  0  0  0  0
 39 41  1  0  0  0  0
 40 85  1  0  0  0  0
 40 86  1  0  0  0  0
 41 42  2  0  0  0  0
 41 46  1  0  0  0  0
 42 43  1  0  0  0  0
 42 87  1  0  0  0  0
 43 44  2  0  0  0  0
 44 45  1  0  0  0  0
 44 88  1  0  0  0  0
 45 46  2  0  0  0  0
 45 90  1  0  0  0  0
 46 89  1  0  0  0  0
M  END
>  <charge>
0

>  <KI_NM>
2.62

>  <number_of_rotatable_bonds>
18

>  <lm5_entropy_jk>
42.88787327729588

>  <ligand_crystal_conformation>
A

$$$$
