5HVP
 OpenBabel11252210453D

102101  0  0  1  0  0  0  0  0999 V2000
    7.8970   -8.7200   19.2480 N   0  0  0  0  0  0  0  0  0  0  0  0
    7.1310   -6.0690   16.9000 N   0  0  0  0  0  0  0  0  0  0  0  0
    6.1460   -2.7860   16.2150 N   0  0  0  0  0  0  0  0  0  0  0  0
    4.3930    1.2040   13.0950 N   0  0  0  0  0  0  0  0  0  0  0  0
    4.1310    2.9310   10.2490 N   0  0  0  0  0  0  0  0  0  0  0  0
    6.9780   -8.1590   18.2390 C   0  0  2  0  0  0  0  0  0  0  0  0
    7.6730   -4.7240   16.6060 C   0  0  2  0  0  0  0  0  0  0  0  0
    4.8230   -2.2780   15.7670 C   0  0  1  0  0  0  0  0  0  0  0  0
    3.4230    1.3310   11.9860 C   0  0  2  0  0  0  0  0  0  0  0  0
    4.5340    4.2250    9.6450 C   0  0  1  0  0  0  0  0  0  0  0  0
    8.7920   -9.7650   18.9730 C   0  0  0  0  0  0  0  0  0  0  0  0
    7.2550   -6.6330   18.1840 C   0  0  0  0  0  0  0  0  0  0  0  0
    6.6560   -3.9930   15.6930 C   0  0  0  0  0  0  0  0  0  0  0  0
    5.0700    0.0030   13.3700 C   0  0  0  0  0  0  0  0  0  0  0  0
    3.4780    2.8020   11.4730 C   0  0  0  0  0  0  0  0  0  0  0  0
    1.8170    4.4000    6.8630 C   0  0  0  0  0  0  0  0  0  0  0  0
    8.9890  -10.1460   17.8260 O   0  0  0  0  0  0  0  0  0  0  0  0
    7.5540   -5.9540   19.1520 O   0  0  0  0  0  0  0  0  0  0  0  0
    6.3460   -4.3550   14.5720 O   0  0  0  0  0  0  0  0  0  0  0  0
    5.1020   -0.9130   12.5630 O   0  0  0  0  0  0  0  0  0  0  0  0
    2.9520    3.7490   12.0350 O   0  0  0  0  0  0  0  0  0  0  0  0
    1.8480    3.5270    6.0280 O   0  0  0  0  0  0  0  0  0  0  0  0
    5.4910   -8.4550   18.6060 C   0  0  0  0  0  0  0  0  0  0  0  0
    9.0820   -4.8070   15.9450 C   0  0  0  0  0  0  0  0  0  0  0  0
    3.6840   -2.7940   16.6730 C   0  0  0  0  0  0  0  0  0  0  0  0
    1.9870    0.9940   12.3960 C   0  0  0  0  0  0  0  0  0  0  0  0
    6.0720    4.3620    9.5870 C   0  0  0  0  0  0  0  0  0  0  0  0
    3.5200   -4.3290   16.6670 C   0  0  0  0  0  0  0  0  0  0  0  0
    6.6770    4.9910   10.8650 C   0  0  0  0  0  0  0  0  0  0  0  0
    4.5420   -7.7050   17.6670 C   0  0  0  0  0  0  0  0  0  0  0  0
    9.5140   -3.4250   15.4470 C   0  0  0  0  0  0  0  0  0  0  0  0
    5.2200   -9.9660   18.5470 C   0  0  0  0  0  0  0  0  0  0  0  0
   10.0860   -5.3620   16.9650 C   0  0  0  0  0  0  0  0  0  0  0  0
    2.5630   -4.7390   17.7990 C   0  0  0  0  0  0  0  0  0  0  0  0
    6.7150    3.9960   12.0330 C   0  0  0  0  0  0  0  0  0  0  0  0
    3.0410   -4.8650   15.3080 C   0  0  0  0  0  0  0  0  0  0  0  0
    8.0890    5.5270   10.5640 C   0  0  0  0  0  0  0  0  0  0  0  0
    4.8020   -0.7180   15.7570 C   0  0  1  0  0  0  0  0  0  0  0  0
    3.9380    4.3270    8.2010 C   0  0  1  0  0  0  0  0  0  0  0  0
    9.5070  -10.3060   20.1780 C   0  0  0  0  0  0  0  0  0  0  0  0
    5.0640   -0.2080   17.0640 O   0  0  0  0  0  0  0  0  0  0  0  0
    4.3420    3.2360    7.3710 O   0  0  0  0  0  0  0  0  0  0  0  0
    5.7410   -0.0680   14.7240 C   0  0  0  0  0  0  0  0  0  0  0  0
    2.4000    4.4510    8.2390 C   0  0  0  0  0  0  0  0  0  0  0  0
    1.1500    5.5810    6.6110 O   0  0  0  0  0  0  0  0  0  0  0  0
    3.8760   -2.4620   17.7230 H   0  0  0  0  0  0  0  0  0  0  0  0
    7.6280   -8.5190   20.2370 H   0  0  0  0  0  0  0  0  0  0  0  0
    6.9990   -6.6950   16.0850 H   0  0  0  0  0  0  0  0  0  0  0  0
    6.5390    3.3670    9.4030 H   0  0  0  0  0  0  0  0  0  0  0  0
    4.4210    1.9770   13.7850 H   0  0  0  0  0  0  0  0  0  0  0  0
    6.3730   -2.5150   17.1750 H   0  0  0  0  0  0  0  0  0  0  0  0
    7.2040   -8.6220   17.2380 H   0  0  0  0  0  0  0  0  0  0  0  0
    4.5060    2.0960    9.7840 H   0  0  0  0  0  0  0  0  0  0  0  0
    7.7710   -4.1740   17.5780 H   0  0  0  0  0  0  0  0  0  0  0  0
    4.5160   -4.7910   16.8890 H   0  0  0  0  0  0  0  0  0  0  0  0
    3.7300    0.6190   11.1640 H   0  0  0  0  0  0  0  0  0  0  0  0
    4.6370   -2.6310   14.7190 H   0  0  0  0  0  0  0  0  0  0  0  0
    5.3140   -8.0970   19.6520 H   0  0  0  0  0  0  0  0  0  0  0  0
    4.1090    5.0630   10.2650 H   0  0  0  0  0  0  0  0  0  0  0  0
    9.0240   -5.5060   15.0720 H   0  0  0  0  0  0  0  0  0  0  0  0
    6.0350    5.8590   11.1650 H   0  0  0  0  0  0  0  0  0  0  0  0
    1.5840    1.7260   13.1270 H   0  0  0  0  0  0  0  0  0  0  0  0
    2.7250   -2.3240   16.3530 H   0  0  0  0  0  0  0  0  0  0  0  0
    1.3330    1.0020   11.4920 H   0  0  0  0  0  0  0  0  0  0  0  0
    2.3290   -5.8210   17.7340 H   0  0  0  0  0  0  0  0  0  0  0  0
    1.9440   -0.0210   12.8530 H   0  0  0  0  0  0  0  0  0  0  0  0
    3.0450   -4.5400   18.7810 H   0  0  0  0  0  0  0  0  0  0  0  0
    6.3400    5.0210    8.7250 H   0  0  0  0  0  0  0  0  0  0  0  0
    3.4960   -8.0400   17.8360 H   0  0  0  0  0  0  0  0  0  0  0  0
    7.2900    4.4240   12.8810 H   0  0  0  0  0  0  0  0  0  0  0  0
    4.5940   -6.6130   17.8690 H   0  0  0  0  0  0  0  0  0  0  0  0
    5.6860    3.7870   12.3920 H   0  0  0  0  0  0  0  0  0  0  0  0
    4.8070   -7.8840   16.6040 H   0  0  0  0  0  0  0  0  0  0  0  0
    7.1920    3.0440   11.7260 H   0  0  0  0  0  0  0  0  0  0  0  0
   10.5670   -3.4650   15.0930 H   0  0  0  0  0  0  0  0  0  0  0  0
    2.1630   -4.2890   14.9540 H   0  0  0  0  0  0  0  0  0  0  0  0
    8.8730   -3.0870   14.6060 H   0  0  0  0  0  0  0  0  0  0  0  0
    3.8640   -4.7740   14.5710 H   0  0  0  0  0  0  0  0  0  0  0  0
    9.4510   -2.6760   16.2660 H   0  0  0  0  0  0  0  0  0  0  0  0
    2.7520   -5.9320   15.4160 H   0  0  0  0  0  0  0  0  0  0  0  0
    4.1600  -10.1630   18.8240 H   0  0  0  0  0  0  0  0  0  0  0  0
    8.7590    4.7000   10.2490 H   0  0  0  0  0  0  0  0  0  0  0  0
    5.3920  -10.3520   17.5180 H   0  0  0  0  0  0  0  0  0  0  0  0
    8.0490    6.2840    9.7520 H   0  0  0  0  0  0  0  0  0  0  0  0
    5.8770  -10.5120   19.2560 H   0  0  0  0  0  0  0  0  0  0  0  0
    8.5110    6.0060   11.4740 H   0  0  0  0  0  0  0  0  0  0  0  0
   11.0870   -5.4520   16.5000 H   0  0  0  0  0  0  0  0  0  0  0  0
    3.7460   -0.3730   15.5970 H   0  0  0  0  0  0  0  0  0  0  0  0
   10.1680   -4.6790   17.8390 H   0  0  0  0  0  0  0  0  0  0  0  0
    4.3770    5.2150    7.6770 H   0  0  0  0  0  0  0  0  0  0  0  0
    9.7780   -6.3700   17.3140 H   0  0  0  0  0  0  0  0  0  0  0  0
    1.6160   -4.1650   17.7410 H   0  0  0  0  0  0  0  0  0  0  0  0
   10.4750   -9.7650   20.3300 H   0  0  0  0  0  0  0  0  0  0  0  0
    8.9090  -10.1980   21.1190 H   0  0  0  0  0  0  0  0  0  0  0  0
    9.7360  -11.3940   20.0490 H   0  0  0  0  0  0  0  0  0  0  0  0
    6.0490    0.0380   17.1960 H   0  0  0  0  0  0  0  0  0  0  0  0
    4.0690    2.3730    7.8050 H   0  0  0  0  0  0  0  0  0  0  0  0
    6.0210    0.9480   15.1100 H   0  0  0  0  0  0  0  0  0  0  0  0
    6.7010   -0.6410   14.6640 H   0  0  0  0  0  0  0  0  0  0  0  0
    1.9520    3.6330    8.8620 H   0  0  0  0  0  0  0  0  0  0  0  0
    2.1380    5.4300    8.7380 H   0  0  0  0  0  0  0  0  0  0  0  0
    0.7220    5.6470    5.7100 H   0  0  0  0  0  0  0  0  0  0  0  0
  1 11  1  0  0  0  0
  1 47  1  0  0  0  0
  2 12  1  0  0  0  0
  3  8  1  0  0  0  0
  3 51  1  0  0  0  0
  3 13  1  0  0  0  0
  4 14  1  0  0  0  0
  4 50  1  0  0  0  0
  5 10  1  0  0  0  0
  5 53  1  0  0  0  0
  5 15  1  0  0  0  0
  6 52  1  6  0  0  0
  6 12  1  0  0  0  0
  6 23  1  0  0  0  0
  6  1  1  0  0  0  0
  7  2  1  0  0  0  0
  7 54  1  1  0  0  0
  8 25  1  0  0  0  0
  8 38  1  0  0  0  0
  8 57  1  6  0  0  0
  9 56  1  6  0  0  0
  9  4  1  0  0  0  0
 10 27  1  0  0  0  0
 10 39  1  0  0  0  0
 10 59  1  1  0  0  0
 11 17  2  0  0  0  0
 11 40  1  0  0  0  0
 12 18  2  0  0  0  0
 13  7  1  0  0  0  0
 14 20  2  0  0  0  0
 14 43  1  0  0  0  0
 15  9  1  0  0  0  0
 15 21  2  0  0  0  0
 16 22  2  0  0  0  0
 16 44  1  0  0  0  0
 16 45  1  0  0  0  0
 19 13  2  0  0  0  0
 23 58  1  0  0  0  0
 24  7  1  0  0  0  0
 24 33  1  0  0  0  0
 25 28  1  0  0  0  0
 25 46  1  0  0  0  0
 25 63  1  0  0  0  0
 26  9  1  0  0  0  0
 26 66  1  0  0  0  0
 27 29  1  0  0  0  0
 27 49  1  0  0  0  0
 27 68  1  0  0  0  0
 28 34  1  0  0  0  0
 28 36  1  0  0  0  0
 28 55  1  0  0  0  0
 29 35  1  0  0  0  0
 29 37  1  0  0  0  0
 29 61  1  0  0  0  0
 30 71  1  0  0  0  0
 30 69  1  0  0  0  0
 30 23  1  0  0  0  0
 31 24  1  0  0  0  0
 31 79  1  0  0  0  0
 32 23  1  0  0  0  0
 32 85  1  0  0  0  0
 33 89  1  0  0  0  0
 34 65  1  0  0  0  0
 34 67  1  0  0  0  0
 34 92  1  0  0  0  0
 35 70  1  0  0  0  0
 35 72  1  0  0  0  0
 35 74  1  0  0  0  0
 36 76  1  0  0  0  0
 36 78  1  0  0  0  0
 36 80  1  0  0  0  0
 37 82  1  0  0  0  0
 37 84  1  0  0  0  0
 37 86  1  0  0  0  0
 38 41  1  0  0  0  0
 38 43  1  0  0  0  0
 38 88  1  1  0  0  0
 39 42  1  0  0  0  0
 39 44  1  0  0  0  0
 39 90  1  6  0  0  0
 40 93  1  0  0  0  0
 40 94  1  0  0  0  0
 40 95  1  0  0  0  0
 41 96  1  0  0  0  0
 42 97  1  0  0  0  0
 43 98  1  0  0  0  0
 43 99  1  0  0  0  0
 44100  1  0  0  0  0
 44101  1  0  0  0  0
 45102  1  0  0  0  0
 48  2  1  0  0  0  0
 60 24  1  0  0  0  0
 62 26  1  0  0  0  0
 64 26  1  0  0  0  0
 73 30  1  0  0  0  0
 75 31  1  0  0  0  0
 77 31  1  0  0  0  0
 81 32  1  0  0  0  0
 83 32  1  0  0  0  0
 87 33  1  0  0  0  0
 91 33  1  0  0  0  0
M  END
>  <penalty_kcalmol>
13.80

>  <protonation_change>
deprotonated_in_solution

>  <protonation_site>
102

>  <protonation_pKa>
4.2

>  <protonation_pKa_method>
stardrop

>  <experiment_pH>
4.7

>  <protonated_energy_kcalmol>
-519.589

>  <deprotonated_energy_kcalmol>
-619.155

>  <charge>
0

>  <KI_NM>
116.00

>  <number_of_rotatable_bonds>
25

>  <lm5_entropy_jk>
57.88760377023577

>  <ligand_crystal_conformation>
A

$$$$
