2Q54
 OpenBabel11252210453D

 92 95  0  0  1  0  0  0  0  0999 V2000
    7.1520   -6.2360   17.0300 N   0  0  0  0  0  0  0  0  0  0  0  0
    7.7460   -6.0180   19.2340 O   0  0  0  0  0  0  0  0  0  0  0  0
    7.1380   -8.2250   18.4720 C   0  0  0  0  0  0  0  0  0  0  0  0
    6.4000   -4.2020   14.6480 O   0  0  0  0  0  0  0  0  0  0  0  0
    7.3880   -6.7520   18.3220 C   0  0  0  0  0  0  0  0  0  0  0  0
    5.5920   -3.4900   16.6530 N   0  0  0  0  0  0  0  0  0  0  0  0
    7.3470    0.6730   12.7530 C   0  0  0  0  0  0  0  0  0  0  0  0
    4.6000    0.2590   13.7000 N   0  0  0  0  0  0  0  0  0  0  0  0
    5.1770    0.7020   16.4360 O   0  0  0  0  0  0  0  0  0  0  0  0
    7.0680    1.9510   12.2410 C   0  0  0  0  0  0  0  0  0  0  0  0
    4.6570   -1.0870   11.8570 O   0  0  0  0  0  0  0  0  0  0  0  0
    7.2670    2.2210   10.8850 C   0  0  0  0  0  0  0  0  0  0  0  0
    7.7400    1.2200   10.0310 C   0  0  0  0  0  0  0  0  0  0  0  0
    8.0480   -0.0440   10.5440 C   0  0  0  0  0  0  0  0  0  0  0  0
    7.8630   -0.3180   11.9010 C   0  0  0  0  0  0  0  0  0  0  0  0
    7.6280   -4.8820   16.6720 C   0  0  2  0  0  0  0  0  0  0  0  0
    6.4980   -4.2030   15.8660 C   0  0  0  0  0  0  0  0  0  0  0  0
    4.3090   -2.9800   16.1070 C   0  0  1  0  0  0  0  0  0  0  0  0
    8.9730   -4.9250   15.8910 C   0  0  0  0  0  0  0  0  0  0  0  0
    9.3640   -3.5190   15.4210 C   0  0  0  0  0  0  0  0  0  0  0  0
   10.0580   -5.5260   16.7980 C   0  0  0  0  0  0  0  0  0  0  0  0
    2.2320   -7.0780   15.6500 C   0  0  0  0  0  0  0  0  0  0  0  0
    2.8370   -7.8850   16.6170 C   0  0  0  0  0  0  0  0  0  0  0  0
    3.5440   -7.2930   17.6690 C   0  0  0  0  0  0  0  0  0  0  0  0
    3.6420   -5.9030   17.7540 C   0  0  0  0  0  0  0  0  0  0  0  0
    3.0360   -5.0900   16.7820 C   0  0  0  0  0  0  0  0  0  0  0  0
    2.3330   -5.6870   15.7250 C   0  0  0  0  0  0  0  0  0  0  0  0
    3.1190   -3.5950   16.8970 C   0  0  0  0  0  0  0  0  0  0  0  0
    4.2220   -1.4460   16.2600 C   0  0  0  0  0  0  0  0  0  0  0  0
    5.4460   -0.6170   15.8780 C   0  0  1  0  0  0  0  0  0  0  0  0
    5.7350   -0.4370   14.3610 C   0  0  2  0  0  0  0  0  0  0  0  0
    4.2440   -0.0750   12.4040 C   0  0  0  0  0  0  0  0  0  0  0  0
    3.1810    0.8120   11.7180 C   0  0  1  0  0  0  0  0  0  0  0  0
    3.0470    2.0750   12.4390 O   0  0  0  0  0  0  0  0  0  0  0  0
    7.0590    0.3590   14.1920 C   0  0  0  0  0  0  0  0  0  0  0  0
    3.2070    3.1720   11.5770 C   0  0  0  0  0  0  0  0  0  0  0  0
    3.0710    4.2920   11.9890 O   0  0  0  0  0  0  0  0  0  0  0  0
    3.4420    2.6920   10.2750 N   0  0  0  0  0  0  0  0  0  0  0  0
    3.5470    1.2030   10.2680 C   0  0  0  0  0  0  0  0  0  0  0  0
    3.8450    3.5120    9.1690 C   0  0  0  0  0  0  0  0  0  0  0  0
    4.8000    3.0640    8.2400 C   0  0  0  0  0  0  0  0  0  0  0  0
    5.1530    3.8950    7.1730 C   0  0  0  0  0  0  0  0  0  0  0  0
    4.5860    5.1630    7.0240 C   0  0  0  0  0  0  0  0  0  0  0  0
    3.6300    5.5960    7.9510 C   0  0  0  0  0  0  0  0  0  0  0  0
    3.2510    4.7820    9.0170 C   0  0  0  0  0  0  0  0  0  0  0  0
    6.1720    3.4150    6.1680 C   0  0  0  0  0  0  0  0  0  0  0  0
    5.8320    2.8520    5.1480 O   0  0  0  0  0  0  0  0  0  0  0  0
    7.5950    3.7110    6.5210 C   0  0  0  0  0  0  0  0  0  0  0  0
    7.0340   -6.9000   16.2450 H   0  0  0  0  0  0  0  0  0  0  0  0
    6.4090   -8.6220   17.7230 H   0  0  0  0  0  0  0  0  0  0  0  0
    8.0970   -8.7860   18.3360 H   0  0  0  0  0  0  0  0  0  0  0  0
    6.7450   -8.4540   19.4920 H   0  0  0  0  0  0  0  0  0  0  0  0
    5.6510   -3.4980   17.6850 H   0  0  0  0  0  0  0  0  0  0  0  0
    4.3590    1.1710   14.1020 H   0  0  0  0  0  0  0  0  0  0  0  0
    6.0570    0.9590   16.9030 H   0  0  0  0  0  0  0  0  0  0  0  0
    6.7060    2.7390   12.9040 H   0  0  0  0  0  0  0  0  0  0  0  0
    7.0590    3.2170   10.4860 H   0  0  0  0  0  0  0  0  0  0  0  0
    7.8740    1.4290    8.9700 H   0  0  0  0  0  0  0  0  0  0  0  0
    8.4350   -0.8150    9.8800 H   0  0  0  0  0  0  0  0  0  0  0  0
    8.1210   -1.2980   12.3000 H   0  0  0  0  0  0  0  0  0  0  0  0
    7.7960   -4.3040   17.6230 H   0  0  0  0  0  0  0  0  0  0  0  0
    4.2350   -3.2690   15.0260 H   0  0  0  0  0  0  0  0  0  0  0  0
    8.8480   -5.5830   14.9950 H   0  0  0  0  0  0  0  0  0  0  0  0
   10.3740   -3.5490   14.9570 H   0  0  0  0  0  0  0  0  0  0  0  0
    8.6370   -3.1450   14.6680 H   0  0  0  0  0  0  0  0  0  0  0  0
    9.3960   -2.8120   16.2770 H   0  0  0  0  0  0  0  0  0  0  0  0
   11.0330   -5.5200   16.2750 H   0  0  0  0  0  0  0  0  0  0  0  0
   10.1580   -4.9320   17.7330 H   0  0  0  0  0  0  0  0  0  0  0  0
    9.8150   -6.5790   17.0570 H   0  0  0  0  0  0  0  0  0  0  0  0
    1.6840   -7.5340   14.8300 H   0  0  0  0  0  0  0  0  0  0  0  0
    2.7630   -8.9730   16.5570 H   0  0  0  0  0  0  0  0  0  0  0  0
    4.0180   -7.9200   18.4280 H   0  0  0  0  0  0  0  0  0  0  0  0
    4.1950   -5.4460   18.5780 H   0  0  0  0  0  0  0  0  0  0  0  0
    1.8500   -5.0660   14.9720 H   0  0  0  0  0  0  0  0  0  0  0  0
    2.1760   -3.1260   16.5280 H   0  0  0  0  0  0  0  0  0  0  0  0
    3.2170   -3.3120   17.9770 H   0  0  0  0  0  0  0  0  0  0  0  0
    4.0690   -1.2420   17.3530 H   0  0  0  0  0  0  0  0  0  0  0  0
    3.3230   -1.0910   15.7050 H   0  0  0  0  0  0  0  0  0  0  0  0
    6.3640   -1.0190   16.3780 H   0  0  0  0  0  0  0  0  0  0  0  0
    5.8660   -1.4570   13.9050 H   0  0  0  0  0  0  0  0  0  0  0  0
    2.1750    0.3240   11.7940 H   0  0  0  0  0  0  0  0  0  0  0  0
    7.0020    1.2990   14.8000 H   0  0  0  0  0  0  0  0  0  0  0  0
    7.8890   -0.2430   14.6410 H   0  0  0  0  0  0  0  0  0  0  0  0
    2.8060    0.7860    9.5340 H   0  0  0  0  0  0  0  0  0  0  0  0
    4.5800    0.8710    9.9850 H   0  0  0  0  0  0  0  0  0  0  0  0
    5.2750    2.0870    8.3360 H   0  0  0  0  0  0  0  0  0  0  0  0
    4.8810    5.8160    6.2000 H   0  0  0  0  0  0  0  0  0  0  0  0
    3.1750    6.5870    7.8370 H   0  0  0  0  0  0  0  0  0  0  0  0
    2.4990    5.1480    9.7210 H   0  0  0  0  0  0  0  0  0  0  0  0
    8.3140    3.1540    5.8740 H   0  0  0  0  0  0  0  0  0  0  0  0
    7.7930    4.8080    6.3970 H   0  0  0  0  0  0  0  0  0  0  0  0
    7.8050    3.4560    7.5900 H   0  0  0  0  0  0  0  0  0  0  0  0
  1  5  1  0  0  0  0
  1 16  1  0  0  0  0
  1 49  1  0  0  0  0
  2  5  2  0  0  0  0
  3  5  1  0  0  0  0
  3 50  1  0  0  0  0
  3 51  1  0  0  0  0
  3 52  1  0  0  0  0
  4 17  2  0  0  0  0
  6 17  1  0  0  0  0
  6 18  1  0  0  0  0
  6 53  1  0  0  0  0
  7 10  2  0  0  0  0
  7 15  1  0  0  0  0
  7 35  1  0  0  0  0
  8 31  1  0  0  0  0
  8 32  1  0  0  0  0
  8 54  1  0  0  0  0
  9 30  1  0  0  0  0
  9 55  1  0  0  0  0
 10 12  1  0  0  0  0
 10 56  1  0  0  0  0
 11 32  2  0  0  0  0
 12 13  2  0  0  0  0
 12 57  1  0  0  0  0
 13 14  1  0  0  0  0
 13 58  1  0  0  0  0
 14 15  2  0  0  0  0
 14 59  1  0  0  0  0
 15 60  1  0  0  0  0
 16 17  1  0  0  0  0
 16 19  1  0  0  0  0
 16 61  1  1  0  0  0
 18 28  1  0  0  0  0
 18 29  1  0  0  0  0
 18 62  1  6  0  0  0
 19 20  1  0  0  0  0
 19 21  1  0  0  0  0
 19 63  1  0  0  0  0
 20 64  1  0  0  0  0
 20 65  1  0  0  0  0
 20 66  1  0  0  0  0
 21 67  1  0  0  0  0
 21 68  1  0  0  0  0
 21 69  1  0  0  0  0
 22 23  2  0  0  0  0
 22 27  1  0  0  0  0
 22 70  1  0  0  0  0
 23 24  1  0  0  0  0
 23 71  1  0  0  0  0
 24 25  2  0  0  0  0
 24 72  1  0  0  0  0
 25 26  1  0  0  0  0
 25 73  1  0  0  0  0
 26 27  2  0  0  0  0
 26 28  1  0  0  0  0
 27 74  1  0  0  0  0
 28 75  1  0  0  0  0
 28 76  1  0  0  0  0
 29 30  1  0  0  0  0
 29 77  1  0  0  0  0
 29 78  1  0  0  0  0
 30 31  1  0  0  0  0
 30 79  1  1  0  0  0
 31 35  1  0  0  0  0
 31 80  1  6  0  0  0
 32 33  1  0  0  0  0
 33 34  1  0  0  0  0
 33 39  1  0  0  0  0
 33 81  1  6  0  0  0
 34 36  1  0  0  0  0
 35 82  1  0  0  0  0
 35 83  1  0  0  0  0
 36 37  2  0  0  0  0
 36 38  1  0  0  0  0
 38 39  1  0  0  0  0
 38 40  1  0  0  0  0
 39 84  1  0  0  0  0
 39 85  1  0  0  0  0
 40 41  2  0  0  0  0
 40 45  1  0  0  0  0
 41 42  1  0  0  0  0
 41 86  1  0  0  0  0
 42 43  2  0  0  0  0
 42 46  1  0  0  0  0
 43 44  1  0  0  0  0
 43 87  1  0  0  0  0
 44 45  2  0  0  0  0
 44 88  1  0  0  0  0
 45 89  1  0  0  0  0
 46 47  2  0  0  0  0
 46 48  1  0  0  0  0
 48 90  1  0  0  0  0
 48 91  1  0  0  0  0
 48 92  1  0  0  0  0
M  END
>  <charge>
0

>  <KI_NM>
0.98

>  <number_of_rotatable_bonds>
18

>  <lm5_entropy_jk>
45.88404741205561

>  <ligand_crystal_conformation>
A

$$$$
