JAK1_2.pdb
 OpenBabel11252210453D

 48 51  0  0  1  0  0  0  0  0999 V2000
  -18.1410   36.7200   -1.9310 C   0  0  0  0  0  0  0  0  0  0  0  0
  -17.1600   36.6030   -3.1000 C   0  0  0  0  0  0  0  0  0  0  0  0
  -17.8610   36.6560   -4.4580 C   0  0  0  0  0  0  0  0  0  0  0  0
  -15.9870   37.5680   -3.0150 C   0  0  0  0  0  0  0  0  0  0  0  0
  -16.6770   35.1870   -3.0940 O   0  0  0  0  0  0  0  0  0  0  0  0
  -15.8540   34.6850   -2.1300 C   0  0  0  0  0  0  0  0  0  0  0  0
  -15.0360   35.3210   -1.4880 O   0  0  0  0  0  0  0  0  0  0  0  0
  -16.0880   33.3120   -1.9460 N   0  0  0  0  0  0  0  0  0  0  0  0
  -14.9090   32.4550   -1.6280 C   0  0  2  0  0  0  0  0  0  0  0  0
  -14.5700   31.4790   -2.7760 C   0  0  0  0  0  0  0  0  0  0  0  0
  -15.2020   30.1300   -2.4110 C   0  0  0  0  0  0  0  0  0  0  0  0
  -15.4800   30.1460   -0.8830 C   0  0  2  0  0  0  0  0  0  0  0  0
  -15.1950   31.5820   -0.3810 C   0  0  0  0  0  0  0  0  0  0  0  0
  -14.6960   29.0950   -0.1790 N   0  0  0  0  0  0  0  0  0  0  0  0
  -13.3790   29.1380    0.3720 C   0  0  0  0  0  0  0  0  0  0  0  0
  -12.9720   27.9290    0.7940 N   0  0  0  0  0  0  0  0  0  0  0  0
  -14.0160   27.0370    0.5130 C   0  0  0  0  0  0  0  0  0  0  0  0
  -15.0940   27.7540   -0.1150 C   0  0  0  0  0  0  0  0  0  0  0  0
  -16.2290   27.0440   -0.5530 C   0  0  0  0  0  0  0  0  0  0  0  0
  -17.4330   27.3130   -1.2730 C   0  0  0  0  0  0  0  0  0  0  0  0
  -18.0990   26.1050   -1.4320 C   0  0  0  0  0  0  0  0  0  0  0  0
  -17.3460   25.0710   -0.8470 N   0  0  0  0  0  0  0  0  0  0  0  0
  -16.1940   25.6280   -0.2860 C   0  0  0  0  0  0  0  0  0  0  0  0
  -15.1820   24.9240    0.3570 N   0  0  0  0  0  0  0  0  0  0  0  0
  -14.1130   25.6240    0.7380 C   0  0  0  0  0  0  0  0  0  0  0  0
  -16.8690   32.8840   -2.5000 H   0  0  0  0  0  0  0  0  0  0  0  0
  -14.0390   33.1360   -1.4230 H   0  0  0  0  0  0  0  0  0  0  0  0
  -14.9640   31.8430   -3.7500 H   0  0  0  0  0  0  0  0  0  0  0  0
  -13.4670   31.3880   -2.8620 H   0  0  0  0  0  0  0  0  0  0  0  0
  -14.5490   29.2840   -2.7090 H   0  0  0  0  0  0  0  0  0  0  0  0
  -16.1800   30.0030   -2.9410 H   0  0  0  0  0  0  0  0  0  0  0  0
  -16.5630   29.8960   -0.7060 H   0  0  0  0  0  0  0  0  0  0  0  0
  -14.3270   31.6050    0.3070 H   0  0  0  0  0  0  0  0  0  0  0  0
  -16.0810   31.9820    0.1640 H   0  0  0  0  0  0  0  0  0  0  0  0
  -12.8050   30.0550    0.4590 H   0  0  0  0  0  0  0  0  0  0  0  0
  -17.7700   28.2550   -1.6660 H   0  0  0  0  0  0  0  0  0  0  0  0
  -19.0300   25.9120   -1.9390 H   0  0  0  0  0  0  0  0  0  0  0  0
  -13.2950   25.0750    1.2340 H   0  0  0  0  0  0  0  0  0  0  0  0
  -17.6700   24.1050   -0.7540 H   0  0  0  0  0  0  0  0  0  0  0  0
  -18.3500   35.6800   -4.6720 H   0  0  0  0  0  0  0  0  0  0  0  0
  -17.1380   36.8580   -5.2850 H   0  0  0  0  0  0  0  0  0  0  0  0
  -18.6270   37.4660   -4.4640 H   0  0  0  0  0  0  0  0  0  0  0  0
  -17.6470   36.4900   -0.9630 H   0  0  0  0  0  0  0  0  0  0  0  0
  -18.9920   36.0120   -2.0650 H   0  0  0  0  0  0  0  0  0  0  0  0
  -18.5560   37.7570   -1.8890 H   0  0  0  0  0  0  0  0  0  0  0  0
  -15.4920   37.5220   -2.0200 H   0  0  0  0  0  0  0  0  0  0  0  0
  -15.2310   37.3410   -3.8020 H   0  0  0  0  0  0  0  0  0  0  0  0
  -16.3550   38.6100   -3.1900 H   0  0  0  0  0  0  0  0  0  0  0  0
  1  2  1  0  0  0  0
  2  3  1  0  0  0  0
  2  4  1  0  0  0  0
  2  5  1  0  0  0  0
  6  8  1  0  0  0  0
  6  5  1  0  0  0  0
  6  7  2  0  0  0  0
  9  8  1  0  0  0  0
  9 27  1  6  0  0  0
 10 11  1  0  0  0  0
 10  9  1  0  0  0  0
 11 12  1  0  0  0  0
 12 13  1  0  0  0  0
 12 14  1  0  0  0  0
 12 32  1  1  0  0  0
 13  9  1  0  0  0  0
 15 14  1  0  0  0  0
 15 16  2  0  0  0  0
 17 18  2  0  0  0  0
 17 25  1  0  0  0  0
 17 16  1  0  0  0  0
 18 19  1  0  0  0  0
 18 14  1  0  0  0  0
 19 20  1  0  0  0  0
 19 23  2  0  0  0  0
 20 21  2  0  0  0  0
 21 22  1  0  0  0  0
 23 22  1  0  0  0  0
 23 24  1  0  0  0  0
 25 24  2  0  0  0  0
 26  8  1  0  0  0  0
 28 10  1  0  0  0  0
 29 10  1  0  0  0  0
 30 11  1  0  0  0  0
 31 11  1  0  0  0  0
 33 13  1  0  0  0  0
 34 13  1  0  0  0  0
 35 15  1  0  0  0  0
 36 20  1  0  0  0  0
 37 21  1  0  0  0  0
 38 25  1  0  0  0  0
 39 22  1  0  0  0  0
 40  3  1  0  0  0  0
 41  3  1  0  0  0  0
 42  3  1  0  0  0  0
 43  1  1  0  0  0  0
 44  1  1  0  0  0  0
 45  1  1  0  0  0  0
 46  4  1  0  0  0  0
 47  4  1  0  0  0  0
 48  4  1  0  0  0  0
M  END
>  <charge>
0

>  <pKi>
9.05

>  <number_of_rotatable_bonds>
5

>  <lm5_entropy_jk>
42.87497332308547

$$$$
