6sy3+2.pdb
 OpenBabel11252210453D

 62 65  0  0  1  0  0  0  0  0999 V2000
   -1.0700   20.4930   15.7640 N   0  3  0  0  0  0  0  0  0  0  0  0
   -0.1120   20.8280   16.9150 C   0  0  1  0  0  0  0  0  0  0  0  0
   -1.4490   17.5940   20.5410 O   0  0  0  0  0  0  0  0  0  0  0  0
    0.1720   19.5460   17.7430 C   0  0  0  0  0  0  0  0  0  0  0  0
    0.1210   19.6330   19.1090 N   0  0  0  0  0  0  0  0  0  0  0  0
    0.4660   18.4910   17.1710 O   0  0  0  0  0  0  0  0  0  0  0  0
    0.7240   18.5740   19.9820 C   0  0  2  0  0  0  0  0  0  0  0  0
    0.1280   16.1990   19.6410 N   0  0  0  0  0  0  0  0  0  0  0  0
   -0.3200   17.4400   20.1090 C   0  0  0  0  0  0  0  0  0  0  0  0
   -2.6490   15.5750   15.5100 N   0  3  0  0  0  0  0  0  0  0  0  0
   -0.7950   15.0840   19.3670 C   0  0  0  0  0  0  0  0  0  0  0  0
   -1.4550   15.2430   18.0130 C   0  0  0  0  0  0  0  0  0  0  0  0
   -2.1100   16.4490   17.6740 C   0  0  0  0  0  0  0  0  0  0  0  0
   -2.6800   16.6120   16.4230 C   0  0  0  0  0  0  0  0  0  0  0  0
   -2.0560   14.3770   15.8230 C   0  0  0  0  0  0  0  0  0  0  0  0
   -1.4440   14.2060   17.0670 C   0  0  0  0  0  0  0  0  0  0  0  0
    0.9840   19.2730   21.3320 C   0  0  0  0  0  0  0  0  0  0  0  0
    0.0570   20.5030   21.3700 C   0  0  0  0  0  0  0  0  0  0  0  0
   -0.2800   20.8430   19.9060 C   0  0  0  0  0  0  0  0  0  0  0  0
    1.2660   21.3470   16.3830 C   0  0  0  0  0  0  0  0  0  0  0  0
    2.0860   21.7770   17.5910 C   0  0  0  0  0  0  0  0  0  0  0  0
    1.9560   23.0570   18.1480 C   0  0  0  0  0  0  0  0  0  0  0  0
    2.7060   23.4130   19.2740 C   0  0  0  0  0  0  0  0  0  0  0  0
    3.5740   22.4880   19.8620 C   0  0  0  0  0  0  0  0  0  0  0  0
    3.6920   21.2050   19.3190 C   0  0  0  0  0  0  0  0  0  0  0  0
    2.9650   20.8540   18.1790 C   0  0  0  0  0  0  0  0  0  0  0  0
    1.1950   22.4450   15.3400 C   0  0  0  0  0  0  0  0  0  0  0  0
    2.1860   22.4590   14.3430 C   0  0  0  0  0  0  0  0  0  0  0  0
    2.2280   23.4930   13.4020 C   0  0  0  0  0  0  0  0  0  0  0  0
    1.2760   24.5160   13.4380 C   0  0  0  0  0  0  0  0  0  0  0  0
    0.2800   24.4980   14.4190 C   0  0  0  0  0  0  0  0  0  0  0  0
    0.2390   23.4710   15.3680 C   0  0  0  0  0  0  0  0  0  0  0  0
   -1.2090   21.3670   15.1650 H   0  0  0  0  0  0  0  0  0  0  0  0
   -2.0160   20.1990   16.1490 H   0  0  0  0  0  0  0  0  0  0  0  0
   -0.6800   19.7090   15.1520 H   0  0  0  0  0  0  0  0  0  0  0  0
   -0.6250   21.6310   17.5200 H   0  0  0  0  0  0  0  0  0  0  0  0
    1.6770   18.2080   19.5120 H   0  0  0  0  0  0  0  0  0  0  0  0
    1.1060   16.0570   19.3400 H   0  0  0  0  0  0  0  0  0  0  0  0
   -0.2180   14.1180   19.4050 H   0  0  0  0  0  0  0  0  0  0  0  0
   -1.6120   15.0490   20.1530 H   0  0  0  0  0  0  0  0  0  0  0  0
    2.0550   19.6000   21.3710 H   0  0  0  0  0  0  0  0  0  0  0  0
    0.7700   18.5920   22.1840 H   0  0  0  0  0  0  0  0  0  0  0  0
   -0.8830   20.2800   21.9290 H   0  0  0  0  0  0  0  0  0  0  0  0
    0.5660   21.3710   21.8590 H   0  0  0  0  0  0  0  0  0  0  0  0
   -1.3780   21.0210   19.7610 H   0  0  0  0  0  0  0  0  0  0  0  0
    0.3040   21.7390   19.5670 H   0  0  0  0  0  0  0  0  0  0  0  0
    1.7630   20.4540   15.9010 H   0  0  0  0  0  0  0  0  0  0  0  0
    1.2530   23.7750   17.7170 H   0  0  0  0  0  0  0  0  0  0  0  0
    2.5910   24.4170   19.7000 H   0  0  0  0  0  0  0  0  0  0  0  0
    4.1490   22.7630   20.7540 H   0  0  0  0  0  0  0  0  0  0  0  0
    4.3490   20.4660   19.7860 H   0  0  0  0  0  0  0  0  0  0  0  0
    3.0700   19.8550   17.7550 H   0  0  0  0  0  0  0  0  0  0  0  0
    2.9310   21.6570   14.3020 H   0  0  0  0  0  0  0  0  0  0  0  0
    3.0100   23.4890   12.6320 H   0  0  0  0  0  0  0  0  0  0  0  0
    1.3020   25.3280   12.7000 H   0  0  0  0  0  0  0  0  0  0  0  0
   -0.4830   25.2840   14.4570 H   0  0  0  0  0  0  0  0  0  0  0  0
   -0.5330   23.4970   16.1400 H   0  0  0  0  0  0  0  0  0  0  0  0
   -2.0920   13.5660   15.0690 H   0  0  0  0  0  0  0  0  0  0  0  0
   -0.9500   13.2410   17.2720 H   0  0  0  0  0  0  0  0  0  0  0  0
   -2.1720   17.2900   18.3800 H   0  0  0  0  0  0  0  0  0  0  0  0
   -3.1800   17.5480   16.1160 H   0  0  0  0  0  0  0  0  0  0  0  0
   -3.0940   15.7520   14.5820 H   0  0  0  0  0  0  0  0  0  0  0  0
  1  2  1  0  0  0  0
  1 33  1  0  0  0  0
  1 34  1  0  0  0  0
  1 35  1  0  0  0  0
  2  4  1  0  0  0  0
  2 20  1  0  0  0  0
  2 36  1  1  0  0  0
  3  9  2  0  0  0  0
  4  5  1  0  0  0  0
  4  6  2  0  0  0  0
  5  7  1  0  0  0  0
  5 19  1  0  0  0  0
  7  9  1  0  0  0  0
  7 17  1  0  0  0  0
  7 37  1  6  0  0  0
  8  9  1  0  0  0  0
  8 11  1  0  0  0  0
  8 38  1  0  0  0  0
 10 14  2  0  0  0  0
 10 15  1  0  0  0  0
 10 62  1  0  0  0  0
 11 12  1  0  0  0  0
 11 39  1  0  0  0  0
 11 40  1  0  0  0  0
 12 13  2  0  0  0  0
 12 16  1  0  0  0  0
 13 14  1  0  0  0  0
 13 60  1  0  0  0  0
 14 61  1  0  0  0  0
 15 16  2  0  0  0  0
 15 58  1  0  0  0  0
 16 59  1  0  0  0  0
 17 18  1  0  0  0  0
 17 41  1  0  0  0  0
 17 42  1  0  0  0  0
 18 19  1  0  0  0  0
 18 43  1  0  0  0  0
 18 44  1  0  0  0  0
 19 45  1  0  0  0  0
 19 46  1  0  0  0  0
 20 21  1  0  0  0  0
 20 27  1  0  0  0  0
 20 47  1  0  0  0  0
 21 22  2  0  0  0  0
 21 26  1  0  0  0  0
 22 23  1  0  0  0  0
 22 48  1  0  0  0  0
 23 24  2  0  0  0  0
 23 49  1  0  0  0  0
 24 25  1  0  0  0  0
 24 50  1  0  0  0  0
 25 26  2  0  0  0  0
 25 51  1  0  0  0  0
 26 52  1  0  0  0  0
 27 28  2  0  0  0  0
 27 32  1  0  0  0  0
 28 29  1  0  0  0  0
 28 53  1  0  0  0  0
 29 30  2  0  0  0  0
 29 54  1  0  0  0  0
 30 31  1  0  0  0  0
 30 55  1  0  0  0  0
 31 32  2  0  0  0  0
 31 56  1  0  0  0  0
 32 57  1  0  0  0  0
M  CHG  2   1   1  10   1
M  END
>  <number_of_rotatable_bonds>
9

>  <lm5_entropy_jk>
25.430252392296193

>  <protonation_change>
deprotonated_in_solution

>  <protonation_site>
62

>  <protonation_pKa>
5.0

>  <protonation_pKa_method>
experiment

>  <experiment_pH>
7.8

>  <protonated_energy_kcalmol>
155.549498

>  <deprotonated_energy_kcalmol>
62.445419

>  <deltaG_kcalmol>
-4.26

>  <charge>
2

$$$$
