3R9D
 OpenBabel11252210453D

 41 43  0  0  0  0  0  0  0  0999 V2000
   65.8560  154.2900  -50.5840 N   0  0  0  0  0  0  0  0  0  0  0  0
   64.4750  154.7520  -48.7940 N   0  0  0  0  0  0  0  0  0  0  0  0
   69.0280  151.4600  -48.8020 N   0  0  0  0  0  0  0  0  0  0  0  0
   67.3130  153.3960  -52.1360 N   0  0  0  0  0  0  0  0  0  0  0  0
   61.9160  153.4210  -42.9540 N   0  0  0  0  0  0  0  0  0  0  0  0
   67.5500  152.8890  -49.8330 C   0  0  0  0  0  0  0  0  0  0  0  0
   66.9520  153.5220  -50.8680 C   0  0  0  0  0  0  0  0  0  0  0  0
   65.5840  154.1630  -49.3000 C   0  0  0  0  0  0  0  0  0  0  0  0
   63.7750  154.6220  -47.6210 C   0  0  0  0  0  0  0  0  0  0  0  0
   68.6910  152.0190  -49.9810 C   0  0  0  0  0  0  0  0  0  0  0  0
   62.9770  155.6820  -47.1960 C   0  0  0  0  0  0  0  0  0  0  0  0
   62.1900  155.5890  -46.0490 C   0  0  0  0  0  0  0  0  0  0  0  0
   62.2140  154.3850  -45.3360 C   0  0  0  0  0  0  0  0  0  0  0  0
   63.0040  153.3000  -45.7440 C   0  0  0  0  0  0  0  0  0  0  0  0
   63.7780  153.4330  -46.8950 C   0  0  0  0  0  0  0  0  0  0  0  0
   70.0180  150.5340  -48.5040 C   0  0  0  0  0  0  0  0  0  0  0  0
   69.8060  149.6680  -47.4340 C   0  0  0  0  0  0  0  0  0  0  0  0
   70.7530  148.6900  -47.1030 C   0  0  0  0  0  0  0  0  0  0  0  0
   71.9430  148.6280  -47.8450 C   0  0  0  0  0  0  0  0  0  0  0  0
   72.1560  149.5050  -48.9060 C   0  0  0  0  0  0  0  0  0  0  0  0
   71.2060  150.4660  -49.2220 C   0  0  0  0  0  0  0  0  0  0  0  0
   69.2500  151.8040  -51.0360 O   0  0  0  0  0  0  0  0  0  0  0  0
   60.1020  153.1700  -44.3410 O   0  0  0  0  0  0  0  0  0  0  0  0
   60.7670  155.3840  -43.2930 O   0  0  0  0  0  0  0  0  0  0  0  0
   66.7200  153.2270  -48.3500 S   0  0  0  0  0  0  0  0  0  0  0  0
   61.0980  154.1710  -44.0240 S   0  0  0  0  0  0  0  0  0  0  0  0
   73.2880  149.4090  -49.6250 F   0  0  0  0  0  0  0  0  0  0  0  0
   63.9980  155.3430  -49.4670 H   0  0  0  0  0  0  0  0  0  0  0  0
   68.4050  151.7070  -48.0530 H   0  0  0  0  0  0  0  0  0  0  0  0
   67.0700  154.1300  -52.7900 H   0  0  0  0  0  0  0  0  0  0  0  0
   68.1820  152.8880  -52.2550 H   0  0  0  0  0  0  0  0  0  0  0  0
   61.3320  152.6320  -43.2540 H   0  0  0  0  0  0  0  0  0  0  0  0
   61.3230  154.0030  -42.3700 H   0  0  0  0  0  0  0  0  0  0  0  0
   62.9430  156.5900  -47.7840 H   0  0  0  0  0  0  0  0  0  0  0  0
   61.5520  156.4330  -45.7600 H   0  0  0  0  0  0  0  0  0  0  0  0
   63.0210  152.3510  -45.2020 H   0  0  0  0  0  0  0  0  0  0  0  0
   64.3470  152.5780  -47.2410 H   0  0  0  0  0  0  0  0  0  0  0  0
   68.8730  149.7230  -46.8780 H   0  0  0  0  0  0  0  0  0  0  0  0
   70.5440  147.9680  -46.3100 H   0  0  0  0  0  0  0  0  0  0  0  0
   72.6600  147.8310  -47.6680 H   0  0  0  0  0  0  0  0  0  0  0  0
   71.3790  151.1350  -50.0540 H   0  0  0  0  0  0  0  0  0  0  0  0
  1  8  2  0  0  0  0
  2  9  1  0  0  0  0
  2 28  1  0  0  0  0
  3 16  1  0  0  0  0
  3 29  1  0  0  0  0
  4  7  1  0  0  0  0
  4 30  1  0  0  0  0
  4 31  1  0  0  0  0
  5 32  1  0  0  0  0
  5 33  1  0  0  0  0
  6 25  1  0  0  0  0
  7  1  1  0  0  0  0
  7  6  2  0  0  0  0
  8  2  1  0  0  0  0
  8 25  1  0  0  0  0
  9 11  2  0  0  0  0
  9 15  1  0  0  0  0
 10  6  1  0  0  0  0
 10  3  1  0  0  0  0
 11 12  1  0  0  0  0
 11 34  1  0  0  0  0
 12 13  2  0  0  0  0
 12 35  1  0  0  0  0
 13 26  1  0  0  0  0
 14 13  1  0  0  0  0
 14 36  1  0  0  0  0
 15 14  2  0  0  0  0
 15 37  1  0  0  0  0
 16 17  2  0  0  0  0
 17 18  1  0  0  0  0
 17 38  1  0  0  0  0
 18 39  1  0  0  0  0
 19 18  2  0  0  0  0
 19 40  1  0  0  0  0
 20 19  1  0  0  0  0
 21 20  2  0  0  0  0
 21 16  1  0  0  0  0
 21 41  1  0  0  0  0
 22 10  2  0  0  0  0
 23 26  2  0  0  0  0
 26 24  2  0  0  0  0
 26  5  1  0  0  0  0
 27 20  1  0  0  0  0
M  END
>  <lm5_entropy_jk>
21.052089499889224

>  <number_of_rotatable_bonds>
6

>  <IC50_NM>
71000

>  <charge>
0

$$$$
