3RAK
 OpenBabel11252210453D

 39 41  0  0  1  0  0  0  0  0999 V2000
   65.9760  154.3550  -50.4720 N   0  0  0  0  0  0  0  0  0  0  0  0
   67.5610  153.5030  -52.0650 N   0  0  0  0  0  0  0  0  0  0  0  0
   64.5590  154.8110  -48.6270 N   0  0  0  0  0  0  0  0  0  0  0  0
   62.0440  152.8240  -42.6970 N   0  0  0  0  0  0  0  0  0  0  0  0
   69.0490  148.9540  -46.5730 C   0  0  0  0  0  0  0  0  0  0  0  0
   70.1590  149.6450  -47.0680 C   0  0  0  0  0  0  0  0  0  0  0  0
   70.0120  150.5570  -48.1180 C   0  0  0  0  0  0  0  0  0  0  0  0
   67.6390  150.0570  -48.2040 C   0  0  0  0  0  0  0  0  0  0  0  0
   67.7880  149.1680  -47.1360 C   0  0  0  0  0  0  0  0  0  0  0  0
   68.7490  150.7600  -48.6900 C   0  0  0  0  0  0  0  0  0  0  0  0
   68.6010  151.6950  -49.8560 C   0  0  0  0  0  0  0  0  0  0  0  0
   67.5930  152.7100  -49.7560 C   0  0  0  0  0  0  0  0  0  0  0  0
   67.0900  153.5220  -50.7940 C   0  0  0  0  0  0  0  0  0  0  0  0
   65.6230  154.1280  -49.1870 C   0  0  0  0  0  0  0  0  0  0  0  0
   63.8600  154.5130  -47.4210 C   0  0  0  0  0  0  0  0  0  0  0  0
   64.0330  153.3500  -46.6560 C   0  0  0  0  0  0  0  0  0  0  0  0
   63.2750  153.1730  -45.4960 C   0  0  0  0  0  0  0  0  0  0  0  0
   62.3180  154.1160  -45.1070 C   0  0  0  0  0  0  0  0  0  0  0  0
   62.1540  155.2830  -45.8690 C   0  0  0  0  0  0  0  0  0  0  0  0
   62.9150  155.4850  -47.0130 C   0  0  0  0  0  0  0  0  0  0  0  0
   60.1020  153.0670  -44.4230 O   0  0  0  0  0  0  0  0  0  0  0  0
   60.8600  155.0120  -43.0770 O   0  0  0  0  0  0  0  0  0  0  0  0
   69.3030  151.5600  -50.8530 O   0  0  0  0  0  0  0  0  0  0  0  0
   66.7000  152.9500  -48.2970 S   0  0  0  0  0  0  0  0  0  0  0  0
   61.2200  153.7950  -43.8200 S   0  0  0  0  0  0  0  0  0  0  0  0
   69.1590  148.2440  -45.7490 H   0  0  0  0  0  0  0  0  0  0  0  0
   71.1350  149.4570  -46.6240 H   0  0  0  0  0  0  0  0  0  0  0  0
   67.1650  154.1230  -52.7970 H   0  0  0  0  0  0  0  0  0  0  0  0
   68.3850  152.9340  -52.2920 H   0  0  0  0  0  0  0  0  0  0  0  0
   70.8770  151.1120  -48.4880 H   0  0  0  0  0  0  0  0  0  0  0  0
   64.0020  155.4250  -49.2800 H   0  0  0  0  0  0  0  0  0  0  0  0
   66.6500  150.1780  -48.6450 H   0  0  0  0  0  0  0  0  0  0  0  0
   62.1510  151.8030  -42.9590 H   0  0  0  0  0  0  0  0  0  0  0  0
   61.8800  152.9340  -41.6880 H   0  0  0  0  0  0  0  0  0  0  0  0
   66.9190  148.6440  -46.7340 H   0  0  0  0  0  0  0  0  0  0  0  0
   64.7210  152.5520  -46.9380 H   0  0  0  0  0  0  0  0  0  0  0  0
   63.4580  152.2690  -44.9040 H   0  0  0  0  0  0  0  0  0  0  0  0
   61.4240  156.0530  -45.5890 H   0  0  0  0  0  0  0  0  0  0  0  0
   62.7600  156.3860  -47.6090 H   0  0  0  0  0  0  0  0  0  0  0  0
  1 13  1  0  0  0  0
  1 14  2  0  0  0  0
  2 13  1  0  0  0  0
  2 28  1  0  0  0  0
  2 29  1  0  0  0  0
  3 14  1  0  0  0  0
  3 15  1  0  0  0  0
  3 31  1  0  0  0  0
  4 25  1  0  0  0  0
  4 33  1  0  0  0  0
  4 34  1  0  0  0  0
  5  6  2  0  0  0  0
  5  9  1  0  0  0  0
  5 26  1  0  0  0  0
  6  7  1  0  0  0  0
  6 27  1  0  0  0  0
  7 10  2  0  0  0  0
  7 30  1  0  0  0  0
  8  9  2  0  0  0  0
  8 10  1  0  0  0  0
  8 32  1  0  0  0  0
  9 35  1  0  0  0  0
 11 10  1  0  0  0  0
 11 12  1  0  0  0  0
 11 23  2  0  0  0  0
 12 13  2  0  0  0  0
 12 24  1  0  0  0  0
 14 24  1  0  0  0  0
 15 16  2  0  0  0  0
 15 20  1  0  0  0  0
 16 17  1  0  0  0  0
 16 36  1  0  0  0  0
 17 18  2  0  0  0  0
 17 37  1  0  0  0  0
 18 19  1  0  0  0  0
 18 25  1  0  0  0  0
 19 20  2  0  0  0  0
 19 38  1  0  0  0  0
 20 39  1  0  0  0  0
 21 25  2  0  0  0  0
 22 25  2  0  0  0  0
M  END
>  <lm5_entropy_jk>
22.952794734129974

>  <number_of_rotatable_bonds>
5

>  <IC50_NM>
130

>  <charge>
0

$$$$
