3QTR
 OpenBabel11252210453D

 34 36  0  0  1  0  0  0  0  0999 V2000
   65.8840  154.3060  -50.4790 N   0  0  0  0  0  0  0  0  0  0  0  0
   67.3490  153.4720  -52.0600 N   0  0  0  0  0  0  0  0  0  0  0  0
   64.4190  154.6510  -48.7150 N   0  0  0  0  0  0  0  0  0  0  0  0
   66.9590  153.5150  -50.7910 C   0  0  0  0  0  0  0  0  0  0  0  0
   67.4500  152.7180  -49.8070 C   0  0  0  0  0  0  0  0  0  0  0  0
   68.4820  151.6930  -50.0320 C   0  0  0  0  0  0  0  0  0  0  0  0
   68.7260  150.6500  -48.9600 C   0  0  0  0  0  0  0  0  0  0  0  0
   67.6690  150.0970  -48.1990 C   0  0  0  0  0  0  0  0  0  0  0  0
   67.9160  149.1040  -47.2370 C   0  0  0  0  0  0  0  0  0  0  0  0
   69.2160  148.6160  -47.0520 C   0  0  0  0  0  0  0  0  0  0  0  0
   70.2660  149.1160  -47.8390 C   0  0  0  0  0  0  0  0  0  0  0  0
   70.0250  150.1300  -48.7840 C   0  0  0  0  0  0  0  0  0  0  0  0
   65.5580  154.0950  -49.2180 C   0  0  0  0  0  0  0  0  0  0  0  0
   63.7220  154.5530  -47.5190 C   0  0  0  0  0  0  0  0  0  0  0  0
   62.8780  155.6090  -47.1460 C   0  0  0  0  0  0  0  0  0  0  0  0
   62.1480  155.5660  -45.9460 C   0  0  0  0  0  0  0  0  0  0  0  0
   62.2620  154.4500  -45.1060 C   0  0  0  0  0  0  0  0  0  0  0  0
   63.0890  153.3780  -45.4760 C   0  0  0  0  0  0  0  0  0  0  0  0
   63.8020  153.4230  -46.6870 C   0  0  0  0  0  0  0  0  0  0  0  0
   69.1090  151.6560  -51.0770 O   0  0  0  0  0  0  0  0  0  0  0  0
   66.6620  153.0880  -48.3030 S   0  0  0  0  0  0  0  0  0  0  0  0
   67.1080  154.2190  -52.6990 H   0  0  0  0  0  0  0  0  0  0  0  0
   68.1810  152.9150  -52.2130 H   0  0  0  0  0  0  0  0  0  0  0  0
   66.6460  150.4210  -48.3650 H   0  0  0  0  0  0  0  0  0  0  0  0
   67.0940  148.7020  -46.6440 H   0  0  0  0  0  0  0  0  0  0  0  0
   69.4010  147.8250  -46.3230 H   0  0  0  0  0  0  0  0  0  0  0  0
   71.2640  148.7000  -47.7290 H   0  0  0  0  0  0  0  0  0  0  0  0
   70.8420  150.5090  -49.3990 H   0  0  0  0  0  0  0  0  0  0  0  0
   63.9650  155.2580  -49.3920 H   0  0  0  0  0  0  0  0  0  0  0  0
   62.7890  156.4770  -47.7930 H   0  0  0  0  0  0  0  0  0  0  0  0
   61.5000  156.3980  -45.6680 H   0  0  0  0  0  0  0  0  0  0  0  0
   61.7090  154.4130  -44.1660 H   0  0  0  0  0  0  0  0  0  0  0  0
   63.1810  152.5120  -44.8230 H   0  0  0  0  0  0  0  0  0  0  0  0
   64.4030  152.5650  -46.9690 H   0  0  0  0  0  0  0  0  0  0  0  0
  1  4  1  0  0  0  0
  1 13  2  0  0  0  0
  2  4  1  0  0  0  0
  2 22  1  0  0  0  0
  2 23  1  0  0  0  0
  3 13  1  0  0  0  0
  3 14  1  0  0  0  0
  3 29  1  0  0  0  0
  4  5  2  0  0  0  0
  5 21  1  0  0  0  0
  6  5  1  0  0  0  0
  6  7  1  0  0  0  0
  6 20  2  0  0  0  0
  7  8  2  0  0  0  0
  7 12  1  0  0  0  0
  8  9  1  0  0  0  0
  8 24  1  0  0  0  0
  9 10  2  0  0  0  0
  9 25  1  0  0  0  0
 10 11  1  0  0  0  0
 10 26  1  0  0  0  0
 11 12  2  0  0  0  0
 11 27  1  0  0  0  0
 12 28  1  0  0  0  0
 13 21  1  0  0  0  0
 14 15  2  0  0  0  0
 14 19  1  0  0  0  0
 15 16  1  0  0  0  0
 15 30  1  0  0  0  0
 16 17  2  0  0  0  0
 16 31  1  0  0  0  0
 17 18  1  0  0  0  0
 17 32  1  0  0  0  0
 18 19  2  0  0  0  0
 18 33  1  0  0  0  0
 19 34  1  0  0  0  0
M  END
>  <lm5_entropy_jk>
21.136452688881562

>  <number_of_rotatable_bonds>
4

>  <IC50_NM>
930

>  <charge>
0

$$$$
