3QXP
 OpenBabel11252210453D

 41 43  0  0  0  0  0  0  0  0999 V2000
   65.9120  154.4510  -50.5200 N   0  0  0  0  0  0  0  0  0  0  0  0
   64.5970  154.9840  -48.6980 N   0  0  0  0  0  0  0  0  0  0  0  0
   67.2310  153.4640  -52.1320 N   0  0  0  0  0  0  0  0  0  0  0  0
   61.9210  153.6980  -42.8940 N   0  0  0  0  0  0  0  0  0  0  0  0
   71.0610  150.7880  -49.3880 N   0  3  0  0  0  0  0  0  0  0  0  0
   67.4060  152.7920  -49.8600 C   0  0  0  0  0  0  0  0  0  0  0  0
   66.9120  153.5770  -50.8510 C   0  0  0  0  0  0  0  0  0  0  0  0
   65.6510  154.3190  -49.2370 C   0  0  0  0  0  0  0  0  0  0  0  0
   63.8690  154.8460  -47.5380 C   0  0  0  0  0  0  0  0  0  0  0  0
   68.3360  151.6760  -50.0770 C   0  0  0  0  0  0  0  0  0  0  0  0
   68.5930  150.7340  -48.9100 C   0  0  0  0  0  0  0  0  0  0  0  0
   69.9000  150.2840  -48.6110 C   0  0  0  0  0  0  0  0  0  0  0  0
   70.1080  149.3640  -47.5600 C   0  0  0  0  0  0  0  0  0  0  0  0
   69.0280  148.8840  -46.8060 C   0  0  0  0  0  0  0  0  0  0  0  0
   67.7280  149.3060  -47.1030 C   0  0  0  0  0  0  0  0  0  0  0  0
   67.5170  150.2120  -48.1530 C   0  0  0  0  0  0  0  0  0  0  0  0
   63.7640  153.6230  -46.8700 C   0  0  0  0  0  0  0  0  0  0  0  0
   62.9460  153.4860  -45.7450 C   0  0  0  0  0  0  0  0  0  0  0  0
   62.2330  154.6080  -45.2890 C   0  0  0  0  0  0  0  0  0  0  0  0
   62.3260  155.8470  -45.9400 C   0  0  0  0  0  0  0  0  0  0  0  0
   63.1390  155.9380  -47.0720 C   0  0  0  0  0  0  0  0  0  0  0  0
   68.8250  151.4650  -51.1750 O   0  0  0  0  0  0  0  0  0  0  0  0
   60.1530  153.3430  -44.2550 O   0  0  0  0  0  0  0  0  0  0  0  0
   60.7410  155.6320  -43.2600 O   0  0  0  0  0  0  0  0  0  0  0  0
   71.9950  149.9980  -49.5450 O   0  5  0  0  0  0  0  0  0  0  0  0
   71.2090  152.0060  -49.4190 O   0  0  0  0  0  0  0  0  0  0  0  0
   66.7070  153.2450  -48.3430 S   0  0  0  0  0  0  0  0  0  0  0  0
   61.0930  154.4170  -43.9800 S   0  0  0  0  0  0  0  0  0  0  0  0
   64.1240  155.5670  -49.3800 H   0  0  0  0  0  0  0  0  0  0  0  0
   66.9780  154.2010  -52.7790 H   0  0  0  0  0  0  0  0  0  0  0  0
   68.0030  152.8380  -52.3180 H   0  0  0  0  0  0  0  0  0  0  0  0
   61.1800  153.0110  -43.0310 H   0  0  0  0  0  0  0  0  0  0  0  0
   61.4840  154.4460  -42.3580 H   0  0  0  0  0  0  0  0  0  0  0  0
   71.1090  149.0190  -47.3220 H   0  0  0  0  0  0  0  0  0  0  0  0
   69.1940  148.1730  -45.9970 H   0  0  0  0  0  0  0  0  0  0  0  0
   66.8860  148.9280  -46.5230 H   0  0  0  0  0  0  0  0  0  0  0  0
   66.5020  150.5080  -48.3850 H   0  0  0  0  0  0  0  0  0  0  0  0
   64.2810  152.7490  -47.2450 H   0  0  0  0  0  0  0  0  0  0  0  0
   62.8660  152.5100  -45.2540 H   0  0  0  0  0  0  0  0  0  0  0  0
   61.7550  156.7270  -45.6160 H   0  0  0  0  0  0  0  0  0  0  0  0
   63.1830  156.8750  -47.6130 H   0  0  0  0  0  0  0  0  0  0  0  0
  1  8  2  0  0  0  0
  2  9  1  0  0  0  0
  2 29  1  0  0  0  0
  3  7  1  0  0  0  0
  3 30  1  0  0  0  0
  3 31  1  0  0  0  0
  4 32  1  0  0  0  0
  4 33  1  0  0  0  0
  5 12  1  0  0  0  0
  6 27  1  0  0  0  0
  7  1  1  0  0  0  0
  7  6  2  0  0  0  0
  8  2  1  0  0  0  0
  8 27  1  0  0  0  0
  9 21  2  0  0  0  0
  9 17  1  0  0  0  0
 10  6  1  0  0  0  0
 10 11  1  0  0  0  0
 11 16  2  0  0  0  0
 11 12  1  0  0  0  0
 12 13  2  0  0  0  0
 13 14  1  0  0  0  0
 13 34  1  0  0  0  0
 14 35  1  0  0  0  0
 15 14  2  0  0  0  0
 15 36  1  0  0  0  0
 16 15  1  0  0  0  0
 16 37  1  0  0  0  0
 17 18  2  0  0  0  0
 17 38  1  0  0  0  0
 18 19  1  0  0  0  0
 18 39  1  0  0  0  0
 19 28  1  0  0  0  0
 20 19  2  0  0  0  0
 20 40  1  0  0  0  0
 21 20  1  0  0  0  0
 21 41  1  0  0  0  0
 22 10  2  0  0  0  0
 23 28  2  0  0  0  0
 25  5  1  0  0  0  0
 26  5  2  0  0  0  0
 28 24  2  0  0  0  0
 28  4  1  0  0  0  0
M  CHG  2   5   1  25  -1
M  END
>  <lm5_entropy_jk>
23.933690845995674

>  <number_of_rotatable_bonds>
6

>  <IC50_NM>
20

>  <charge>
0

$$$$
