ra9.pdb
 OpenBabel11252210453D

 31 32  0  0  0  0  0  0  0  0999 V2000
   -3.7880    7.1310   13.1730 N   0  0  0  0  0  0  0  0  0  0  0  0
   -3.5000    4.8000   13.9710 C   0  0  0  0  0  0  0  0  0  0  0  0
   -1.5520    6.8710   13.5960 O   0  0  0  0  0  0  0  0  0  0  0  0
   -3.9420    3.7400   14.7740 C   0  0  0  0  0  0  0  0  0  0  0  0
   -1.8600   11.9930   11.9640 N   0  0  0  0  0  0  0  0  0  0  0  0
   -4.9300    2.7580   17.8500 O   0  0  0  0  0  0  0  0  0  0  0  0
   -0.2600   12.6460   14.0010 S   0  0  0  0  0  0  0  0  0  0  0  0
   -5.1110    3.8530   15.5210 C   0  0  0  0  0  0  0  0  0  0  0  0
   -1.6080   13.3080   11.7690 N   0  0  0  0  0  0  0  0  0  0  0  0
   -7.1280    2.6350   16.5520 O   0  0  0  0  0  0  0  0  0  0  0  0
   -5.6570    2.5440   16.5960 S   0  0  0  0  0  0  0  0  0  0  0  0
   -5.8690    5.0260   15.4410 C   0  0  0  0  0  0  0  0  0  0  0  0
   -0.5240   15.2110   12.8250 N   0  0  0  0  0  0  0  0  0  0  0  0
   -5.4490    6.0940   14.6440 C   0  0  0  0  0  0  0  0  0  0  0  0
   -5.4550    1.0360   15.9310 N   0  5  0  0  0  0  0  0  0  0  0  0
   -4.2420    5.9870   13.9310 C   0  0  0  0  0  0  0  0  0  0  0  0
   -2.4530    7.5480   13.1310 C   0  0  0  0  0  0  0  0  0  0  0  0
   -2.2030    8.8870   12.4580 C   0  0  0  0  0  0  0  0  0  0  0  0
   -1.2700   11.4730   13.0360 C   0  0  0  0  0  0  0  0  0  0  0  0
   -0.8080   13.8610   12.7160 C   0  0  0  0  0  0  0  0  0  0  0  0
   -1.2920    9.8570   13.6850 S   0  0  0  0  0  0  0  0  0  0  0  0
   -2.5830    4.6940   13.3850 H   0  0  0  0  0  0  0  0  0  0  0  0
   -4.5160    7.7550   12.7970 H   0  0  0  0  0  0  0  0  0  0  0  0
    0.3450   15.4680   13.3140 H   0  0  0  0  0  0  0  0  0  0  0  0
   -0.7090   15.8020   12.0000 H   0  0  0  0  0  0  0  0  0  0  0  0
   -4.5180    0.6410   16.3020 H   0  0  0  0  0  0  0  0  0  0  0  0
   -3.3370    2.8290   14.7820 H   0  0  0  0  0  0  0  0  0  0  0  0
   -6.7990    5.1460   16.0090 H   0  0  0  0  0  0  0  0  0  0  0  0
   -6.0400    7.0090   14.5880 H   0  0  0  0  0  0  0  0  0  0  0  0
   -1.5950    8.7320   11.5240 H   0  0  0  0  0  0  0  0  0  0  0  0
   -3.1420    9.4090   12.1360 H   0  0  0  0  0  0  0  0  0  0  0  0
  1 16  1  0  0  0  0
  1 17  1  0  0  0  0
  2  4  2  0  0  0  0
  2 16  1  0  0  0  0
  3 17  2  0  0  0  0
  4  8  1  0  0  0  0
  5  9  1  0  0  0  0
  5 19  2  0  0  0  0
  6 11  2  0  0  0  0
  7 19  1  0  0  0  0
  7 20  1  0  0  0  0
  8 11  1  0  0  0  0
  8 12  2  0  0  0  0
  9 20  2  0  0  0  0
 10 11  2  0  0  0  0
 11 15  1  0  0  0  0
 12 14  1  0  0  0  0
 13 20  1  0  0  0  0
 14 16  2  0  0  0  0
 17 18  1  0  0  0  0
 18 21  1  0  0  0  0
 19 21  1  0  0  0  0
 22  2  1  0  0  0  0
 23  1  1  0  0  0  0
 24 13  1  0  0  0  0
 25 13  1  0  0  0  0
 26 15  1  0  0  0  0
 27  4  1  0  0  0  0
 28 12  1  0  0  0  0
 29 14  1  0  0  0  0
 30 18  1  0  0  0  0
 31 18  1  0  0  0  0
M  CHG  1  15  -1
M  END
>  <deltaG_kcalmol>
-9.9

>  <number_of_rotatable_bonds>
6

>  <charge>
-1

>  <lm5_entropy_jk>
25.12029370685346

$$$$
