4IVB
 OpenBabel11252210453D

 42 45  0  0  1  0  0  0  0  0999 V2000
  -10.4690   29.1460    2.0360 C   0  0  0  0  0  0  0  0  0  0  0  0
  -11.4730   29.5870    0.9800 C   0  0  1  0  0  0  0  0  0  0  0  0
  -10.8620   29.9950   -0.2580 O   0  0  0  0  0  0  0  0  0  0  0  0
  -12.4920   28.5070    0.6780 C   0  0  0  0  0  0  0  0  0  0  0  0
  -13.7190   28.7590   -0.0260 N   0  0  0  0  0  0  0  0  0  0  0  0
  -14.4470   27.5610    0.0100 C   0  0  0  0  0  0  0  0  0  0  0  0
  -13.5970   26.6140    0.6910 C   0  0  0  0  0  0  0  0  0  0  0  0
  -12.4100   27.2340    1.0900 N   0  0  0  0  0  0  0  0  0  0  0  0
  -13.9790   25.2490    0.8820 C   0  0  0  0  0  0  0  0  0  0  0  0
  -15.1400   24.7800    0.4350 N   0  0  0  0  0  0  0  0  0  0  0  0
  -15.9670   25.6950   -0.2050 C   0  0  0  0  0  0  0  0  0  0  0  0
  -15.7060   27.0970   -0.4460 C   0  0  0  0  0  0  0  0  0  0  0  0
  -16.8560   27.6090   -1.1210 C   0  0  0  0  0  0  0  0  0  0  0  0
  -17.7560   26.5630   -1.2910 C   0  0  0  0  0  0  0  0  0  0  0  0
  -17.2190   25.3840   -0.7450 N   0  0  0  0  0  0  0  0  0  0  0  0
  -14.0400   30.0680   -0.6570 C   0  0  1  0  0  0  0  0  0  0  0  0
  -14.3550   29.9610   -2.1630 C   0  0  0  0  0  0  0  0  0  0  0  0
  -14.5960   31.3610   -2.7540 C   0  0  0  0  0  0  0  0  0  0  0  0
  -15.6860   32.1280   -1.9660 C   0  0  1  0  0  0  0  0  0  0  0  0
  -15.3670   32.1850   -0.4520 C   0  0  0  0  0  0  0  0  0  0  0  0
  -15.1810   30.7690    0.1090 C   0  0  0  0  0  0  0  0  0  0  0  0
  -15.8020   33.4970   -2.4740 C   0  0  0  0  0  0  0  0  0  0  0  0
  -15.8870   34.5870   -2.8530 N   0  0  0  0  0  0  0  0  0  0  0  0
  -12.0020   30.5190    1.3120 H   0  0  0  0  0  0  0  0  0  0  0  0
  -13.3050   24.5600    1.4140 H   0  0  0  0  0  0  0  0  0  0  0  0
  -17.0300   28.6140   -1.4600 H   0  0  0  0  0  0  0  0  0  0  0  0
  -18.7180   26.5770   -1.7800 H   0  0  0  0  0  0  0  0  0  0  0  0
  -13.1110   30.7030   -0.5640 H   0  0  0  0  0  0  0  0  0  0  0  0
  -13.5000   29.4870   -2.6990 H   0  0  0  0  0  0  0  0  0  0  0  0
  -15.2650   29.3340   -2.3310 H   0  0  0  0  0  0  0  0  0  0  0  0
  -14.9300   31.2480   -3.8130 H   0  0  0  0  0  0  0  0  0  0  0  0
  -13.6540   31.9550   -2.7500 H   0  0  0  0  0  0  0  0  0  0  0  0
  -16.6780   31.6080   -2.1110 H   0  0  0  0  0  0  0  0  0  0  0  0
  -14.4400   32.7850   -0.2970 H   0  0  0  0  0  0  0  0  0  0  0  0
  -16.2070   32.6950    0.0790 H   0  0  0  0  0  0  0  0  0  0  0  0
  -16.1260   30.1860   -0.0100 H   0  0  0  0  0  0  0  0  0  0  0  0
  -14.9350   30.8210    1.1960 H   0  0  0  0  0  0  0  0  0  0  0  0
  -17.7090   24.4880   -0.6720 H   0  0  0  0  0  0  0  0  0  0  0  0
   -9.9260   29.5850   -0.3410 H   0  0  0  0  0  0  0  0  0  0  0  0
   -9.7680   29.9800    2.2790 H   0  0  0  0  0  0  0  0  0  0  0  0
  -11.0010   28.8730    2.9830 H   0  0  0  0  0  0  0  0  0  0  0  0
   -9.8850   28.2530    1.7140 H   0  0  0  0  0  0  0  0  0  0  0  0
  1  2  1  0  0  0  0
  2  4  1  0  0  0  0
  2  3  1  0  0  0  0
  2 24  1  1  0  0  0
  4  5  1  0  0  0  0
  4  8  2  0  0  0  0
  6  7  1  0  0  0  0
  6  5  1  0  0  0  0
  7  8  1  0  0  0  0
  9  7  2  0  0  0  0
  9 10  1  0  0  0  0
 11 12  1  0  0  0  0
 11 10  2  0  0  0  0
 11 15  1  0  0  0  0
 12 13  1  0  0  0  0
 12  6  2  0  0  0  0
 13 14  2  0  0  0  0
 14 15  1  0  0  0  0
 16 17  1  0  0  0  0
 16 21  1  0  0  0  0
 16  5  1  0  0  0  0
 16 28  1  1  0  0  0
 17 18  1  0  0  0  0
 18 19  1  0  0  0  0
 19 20  1  0  0  0  0
 19 22  1  0  0  0  0
 19 33  1  6  0  0  0
 20 21  1  0  0  0  0
 22 23  3  0  0  0  0
 25  9  1  0  0  0  0
 26 13  1  0  0  0  0
 27 14  1  0  0  0  0
 29 17  1  0  0  0  0
 30 17  1  0  0  0  0
 31 18  1  0  0  0  0
 32 18  1  0  0  0  0
 34 20  1  0  0  0  0
 35 20  1  0  0  0  0
 36 21  1  0  0  0  0
 37 21  1  0  0  0  0
 38 15  1  0  0  0  0
 39  3  1  0  0  0  0
 40  1  1  0  0  0  0
 41  1  1  0  0  0  0
 42  1  1  0  0  0  0
M  END
>  <charge>
0

>  <pKi>
8.72

>  <number_of_rotatable_bonds>
2

>  <lm5_entropy_jk>
24.701218558635038

$$$$
