3s1h.pdb
 OpenBabel11252210453D

 43 45  0  0  1  0  0  0  0  0999 V2000
   65.9980  154.3530  -50.4920 N   0  0  0  0  0  0  0  0  0  0  0  0
   67.5360  153.4720  -52.1160 N   0  0  0  0  0  0  0  0  0  0  0  0
   64.6440  154.8590  -48.6070 N   0  0  0  0  0  0  0  0  0  0  0  0
   62.1190  152.8100  -42.6940 N   0  0  0  0  0  0  0  0  0  0  0  0
   69.0220  149.3360  -46.3190 C   0  0  0  0  0  0  0  0  0  0  0  0
   70.1730  149.7470  -47.0330 C   0  0  0  0  0  0  0  0  0  0  0  0
   70.0120  150.4760  -48.2030 C   0  0  0  0  0  0  0  0  0  0  0  0
   67.6030  150.2290  -48.0420 C   0  0  0  0  0  0  0  0  0  0  0  0
   67.7400  149.5310  -46.8390 C   0  0  0  0  0  0  0  0  0  0  0  0
   68.2220  148.4350  -44.2220 C   0  0  0  0  0  0  0  0  0  0  0  0
   68.7220  150.7620  -48.6940 C   0  0  0  0  0  0  0  0  0  0  0  0
   68.5730  151.6300  -49.9020 C   0  0  0  0  0  0  0  0  0  0  0  0
   67.6120  152.6970  -49.8010 C   0  0  0  0  0  0  0  0  0  0  0  0
   67.0950  153.5010  -50.8330 C   0  0  0  0  0  0  0  0  0  0  0  0
   65.6830  154.1550  -49.1940 C   0  0  0  0  0  0  0  0  0  0  0  0
   63.9520  154.5480  -47.3990 C   0  0  0  0  0  0  0  0  0  0  0  0
   64.1220  153.3760  -46.6480 C   0  0  0  0  0  0  0  0  0  0  0  0
   63.3560  153.1830  -45.4950 C   0  0  0  0  0  0  0  0  0  0  0  0
   62.4030  154.1240  -45.0930 C   0  0  0  0  0  0  0  0  0  0  0  0
   62.2460  155.3020  -45.8390 C   0  0  0  0  0  0  0  0  0  0  0  0
   63.0110  155.5180  -46.9780 C   0  0  0  0  0  0  0  0  0  0  0  0
   60.1630  153.1020  -44.4080 O   0  0  0  0  0  0  0  0  0  0  0  0
   60.9660  155.0190  -43.0520 O   0  0  0  0  0  0  0  0  0  0  0  0
   69.2380  151.4410  -50.9130 O   0  0  0  0  0  0  0  0  0  0  0  0
   69.3260  148.7770  -45.1020 O   0  0  0  0  0  0  0  0  0  0  0  0
   66.7900  153.0010  -48.3110 S   0  0  0  0  0  0  0  0  0  0  0  0
   61.3020  153.8020  -43.8090 S   0  0  0  0  0  0  0  0  0  0  0  0
   71.1520  149.4810  -46.6480 H   0  0  0  0  0  0  0  0  0  0  0  0
   67.1380  154.1060  -52.8330 H   0  0  0  0  0  0  0  0  0  0  0  0
   68.3400  152.8860  -52.3650 H   0  0  0  0  0  0  0  0  0  0  0  0
   70.8900  150.8430  -48.7440 H   0  0  0  0  0  0  0  0  0  0  0  0
   64.0770  155.4730  -49.2500 H   0  0  0  0  0  0  0  0  0  0  0  0
   66.5960  150.3300  -48.4550 H   0  0  0  0  0  0  0  0  0  0  0  0
   62.2180  151.7930  -42.9740 H   0  0  0  0  0  0  0  0  0  0  0  0
   61.9280  152.8980  -41.6870 H   0  0  0  0  0  0  0  0  0  0  0  0
   66.8470  149.1590  -46.3350 H   0  0  0  0  0  0  0  0  0  0  0  0
   68.7580  148.1370  -43.2910 H   0  0  0  0  0  0  0  0  0  0  0  0
   67.6520  147.5900  -44.6600 H   0  0  0  0  0  0  0  0  0  0  0  0
   67.5780  149.3240  -44.0440 H   0  0  0  0  0  0  0  0  0  0  0  0
   64.8080  152.5800  -46.9380 H   0  0  0  0  0  0  0  0  0  0  0  0
   63.5290  152.2650  -44.9200 H   0  0  0  0  0  0  0  0  0  0  0  0
   61.5170  156.0710  -45.5510 H   0  0  0  0  0  0  0  0  0  0  0  0
   62.8610  156.4300  -47.5600 H   0  0  0  0  0  0  0  0  0  0  0  0
  1 14  1  0  0  0  0
  1 15  2  0  0  0  0
  2 14  1  0  0  0  0
  2 29  1  0  0  0  0
  2 30  1  0  0  0  0
  3 15  1  0  0  0  0
  3 16  1  0  0  0  0
  3 32  1  0  0  0  0
  4 27  1  0  0  0  0
  4 34  1  0  0  0  0
  4 35  1  0  0  0  0
  5  6  2  0  0  0  0
  5  9  1  0  0  0  0
  5 25  1  0  0  0  0
  6  7  1  0  0  0  0
  6 28  1  0  0  0  0
  7 11  2  0  0  0  0
  7 31  1  0  0  0  0
  8  9  2  0  0  0  0
  8 11  1  0  0  0  0
  8 33  1  0  0  0  0
  9 36  1  0  0  0  0
 10 25  1  0  0  0  0
 10 37  1  0  0  0  0
 10 38  1  0  0  0  0
 10 39  1  0  0  0  0
 12 11  1  0  0  0  0
 12 13  1  0  0  0  0
 12 24  2  0  0  0  0
 13 14  2  0  0  0  0
 13 26  1  0  0  0  0
 15 26  1  0  0  0  0
 16 17  2  0  0  0  0
 16 21  1  0  0  0  0
 17 18  1  0  0  0  0
 17 40  1  0  0  0  0
 18 19  2  0  0  0  0
 18 41  1  0  0  0  0
 19 20  1  0  0  0  0
 19 27  1  0  0  0  0
 20 21  2  0  0  0  0
 20 42  1  0  0  0  0
 21 43  1  0  0  0  0
 22 27  2  0  0  0  0
 23 27  2  0  0  0  0
M  END
>  <lm5_entropy_jk>
33.50945403317048

>  <number_of_rotatable_bonds>
6

>  <IC50_NM>
17000

>  <charge>
0

$$$$
