3RAL
 OpenBabel11252210453D

 43 45  0  0  1  0  0  0  0  0999 V2000
   65.9550  154.4400  -50.5500 N   0  0  0  0  0  0  0  0  0  0  0  0
   67.5360  153.5710  -52.1390 N   0  0  0  0  0  0  0  0  0  0  0  0
   64.5470  154.9100  -48.6940 N   0  0  0  0  0  0  0  0  0  0  0  0
   62.0780  152.8720  -42.7670 N   0  0  0  0  0  0  0  0  0  0  0  0
   68.3500  149.0880  -46.5220 C   0  0  0  0  0  0  0  0  0  0  0  0
   69.5910  149.5370  -46.9820 C   0  0  0  0  0  0  0  0  0  0  0  0
   69.7120  150.4530  -48.0530 C   0  0  0  0  0  0  0  0  0  0  0  0
   67.3070  150.2860  -48.3450 C   0  0  0  0  0  0  0  0  0  0  0  0
   67.2040  149.4740  -47.2200 C   0  0  0  0  0  0  0  0  0  0  0  0
   70.7410  147.9220  -45.6500 C   0  0  0  0  0  0  0  0  0  0  0  0
   68.5510  150.8200  -48.7230 C   0  0  0  0  0  0  0  0  0  0  0  0
   68.5850  151.7870  -49.8800 C   0  0  0  0  0  0  0  0  0  0  0  0
   67.5940  152.8250  -49.8190 C   0  0  0  0  0  0  0  0  0  0  0  0
   67.0770  153.6130  -50.8630 C   0  0  0  0  0  0  0  0  0  0  0  0
   65.6130  154.2310  -49.2590 C   0  0  0  0  0  0  0  0  0  0  0  0
   63.8460  154.5920  -47.4930 C   0  0  0  0  0  0  0  0  0  0  0  0
   64.0330  153.4290  -46.7320 C   0  0  0  0  0  0  0  0  0  0  0  0
   63.2710  153.2310  -45.5780 C   0  0  0  0  0  0  0  0  0  0  0  0
   62.3070  154.1630  -45.1800 C   0  0  0  0  0  0  0  0  0  0  0  0
   62.1280  155.3300  -45.9380 C   0  0  0  0  0  0  0  0  0  0  0  0
   62.8840  155.5460  -47.0830 C   0  0  0  0  0  0  0  0  0  0  0  0
   60.1080  153.0920  -44.4650 O   0  0  0  0  0  0  0  0  0  0  0  0
   60.8660  155.0470  -43.1350 O   0  0  0  0  0  0  0  0  0  0  0  0
   69.3730  151.6480  -50.8030 O   0  0  0  0  0  0  0  0  0  0  0  0
   70.7970  149.1380  -46.4460 O   0  0  0  0  0  0  0  0  0  0  0  0
   66.7110  153.0900  -48.3550 S   0  0  0  0  0  0  0  0  0  0  0  0
   61.2270  153.8320  -43.8800 S   0  0  0  0  0  0  0  0  0  0  0  0
   68.2390  148.4410  -45.6520 H   0  0  0  0  0  0  0  0  0  0  0  0
   67.1200  154.1700  -52.8770 H   0  0  0  0  0  0  0  0  0  0  0  0
   68.3750  153.0280  -52.3610 H   0  0  0  0  0  0  0  0  0  0  0  0
   70.6860  150.8470  -48.3360 H   0  0  0  0  0  0  0  0  0  0  0  0
   63.9780  155.5080  -49.3500 H   0  0  0  0  0  0  0  0  0  0  0  0
   66.4080  150.4790  -48.9190 H   0  0  0  0  0  0  0  0  0  0  0  0
   62.1790  151.8490  -43.0220 H   0  0  0  0  0  0  0  0  0  0  0  0
   61.9330  152.9890  -41.7560 H   0  0  0  0  0  0  0  0  0  0  0  0
   66.2250  149.1470  -46.8740 H   0  0  0  0  0  0  0  0  0  0  0  0
   71.7880  147.5750  -45.7140 H   0  0  0  0  0  0  0  0  0  0  0  0
   70.0710  147.1680  -46.1280 H   0  0  0  0  0  0  0  0  0  0  0  0
   70.3920  148.1800  -44.6300 H   0  0  0  0  0  0  0  0  0  0  0  0
   64.7370  152.6440  -47.0110 H   0  0  0  0  0  0  0  0  0  0  0  0
   63.4570  152.3210  -44.9960 H   0  0  0  0  0  0  0  0  0  0  0  0
   61.3890  156.0910  -45.6540 H   0  0  0  0  0  0  0  0  0  0  0  0
   62.7130  156.4450  -47.6780 H   0  0  0  0  0  0  0  0  0  0  0  0
  1 14  1  0  0  0  0
  1 15  2  0  0  0  0
  2 14  1  0  0  0  0
  2 29  1  0  0  0  0
  2 30  1  0  0  0  0
  3 15  1  0  0  0  0
  3 16  1  0  0  0  0
  3 32  1  0  0  0  0
  4 27  1  0  0  0  0
  4 34  1  0  0  0  0
  4 35  1  0  0  0  0
  5  6  2  0  0  0  0
  5  9  1  0  0  0  0
  5 28  1  0  0  0  0
  6  7  1  0  0  0  0
  6 25  1  0  0  0  0
  7 11  2  0  0  0  0
  7 31  1  0  0  0  0
  8  9  2  0  0  0  0
  8 11  1  0  0  0  0
  8 33  1  0  0  0  0
  9 36  1  0  0  0  0
 10 25  1  0  0  0  0
 10 37  1  0  0  0  0
 10 38  1  0  0  0  0
 10 39  1  0  0  0  0
 12 11  1  0  0  0  0
 12 13  1  0  0  0  0
 12 24  2  0  0  0  0
 13 14  2  0  0  0  0
 13 26  1  0  0  0  0
 15 26  1  0  0  0  0
 16 17  2  0  0  0  0
 16 21  1  0  0  0  0
 17 18  1  0  0  0  0
 17 40  1  0  0  0  0
 18 19  2  0  0  0  0
 18 41  1  0  0  0  0
 19 20  1  0  0  0  0
 19 27  1  0  0  0  0
 20 21  2  0  0  0  0
 20 42  1  0  0  0  0
 21 43  1  0  0  0  0
 22 27  2  0  0  0  0
 23 27  2  0  0  0  0
M  END
>  <lm5_entropy_jk>
33.50945403317048

>  <number_of_rotatable_bonds>
6

>  <IC50_NM>
100

>  <charge>
0

$$$$
