3RMF
 OpenBabel11252210453D

 45 48  0  0  0  0  0  0  0  0999 V2000
   65.8470  154.5080  -50.6610 N   0  0  0  0  0  0  0  0  0  0  0  0
   64.5710  155.1220  -48.7370 N   0  0  0  0  0  0  0  0  0  0  0  0
   67.3830  153.5610  -52.2570 N   0  0  0  0  0  0  0  0  0  0  0  0
   62.1150  152.9990  -42.8410 N   0  0  0  0  0  0  0  0  0  0  0  0
   67.4900  152.8930  -49.9170 C   0  0  0  0  0  0  0  0  0  0  0  0
   66.9450  153.6470  -50.9800 C   0  0  0  0  0  0  0  0  0  0  0  0
   65.5860  154.3970  -49.3420 C   0  0  0  0  0  0  0  0  0  0  0  0
   63.8640  154.7750  -47.5450 C   0  0  0  0  0  0  0  0  0  0  0  0
   68.4040  151.7920  -50.0340 C   0  0  0  0  0  0  0  0  0  0  0  0
   68.6450  150.9270  -48.8290 C   0  0  0  0  0  0  0  0  0  0  0  0
   69.9430  150.3430  -48.6850 C   0  0  0  0  0  0  0  0  0  0  0  0
   70.2260  149.5390  -47.6110 C   0  0  0  0  0  0  0  0  0  0  0  0
   69.2650  149.3390  -46.5700 C   0  0  0  0  0  0  0  0  0  0  0  0
   67.9820  149.9270  -46.7060 C   0  0  0  0  0  0  0  0  0  0  0  0
   67.6700  150.6540  -47.8980 C   0  0  0  0  0  0  0  0  0  0  0  0
   62.9090  155.7250  -47.1100 C   0  0  0  0  0  0  0  0  0  0  0  0
   62.1450  155.4810  -45.9760 C   0  0  0  0  0  0  0  0  0  0  0  0
   62.3120  154.2920  -45.2510 C   0  0  0  0  0  0  0  0  0  0  0  0
   63.2660  153.3610  -45.6750 C   0  0  0  0  0  0  0  0  0  0  0  0
   64.0330  153.5840  -46.8220 C   0  0  0  0  0  0  0  0  0  0  0  0
   69.5640  148.5930  -45.3860 C   0  0  0  0  0  0  0  0  0  0  0  0
   68.6590  148.5320  -44.3560 C   0  0  0  0  0  0  0  0  0  0  0  0
   67.3880  149.1670  -44.4750 C   0  0  0  0  0  0  0  0  0  0  0  0
   67.0430  149.8200  -45.6320 C   0  0  0  0  0  0  0  0  0  0  0  0
   68.9800  151.5480  -51.0910 O   0  0  0  0  0  0  0  0  0  0  0  0
   60.1210  153.1890  -44.5200 O   0  0  0  0  0  0  0  0  0  0  0  0
   60.8630  155.1570  -43.2020 O   0  0  0  0  0  0  0  0  0  0  0  0
   66.7500  153.3320  -48.4250 S   0  0  0  0  0  0  0  0  0  0  0  0
   61.2380  153.9450  -43.9490 S   0  0  0  0  0  0  0  0  0  0  0  0
   63.9940  155.7330  -49.3780 H   0  0  0  0  0  0  0  0  0  0  0  0
   66.9790  154.1480  -53.0090 H   0  0  0  0  0  0  0  0  0  0  0  0
   68.1650  152.9320  -52.4860 H   0  0  0  0  0  0  0  0  0  0  0  0
   62.1950  151.9700  -43.0790 H   0  0  0  0  0  0  0  0  0  0  0  0
   61.9870  153.1360  -41.8300 H   0  0  0  0  0  0  0  0  0  0  0  0
   70.6970  150.5320  -49.4570 H   0  0  0  0  0  0  0  0  0  0  0  0
   71.1860  149.0310  -47.5280 H   0  0  0  0  0  0  0  0  0  0  0  0
   66.6210  150.9430  -48.0240 H   0  0  0  0  0  0  0  0  0  0  0  0
   62.7490  156.6430  -47.6770 H   0  0  0  0  0  0  0  0  0  0  0  0
   61.4090  156.2390  -45.6760 H   0  0  0  0  0  0  0  0  0  0  0  0
   63.4350  152.4290  -45.1210 H   0  0  0  0  0  0  0  0  0  0  0  0
   64.7220  152.7980  -47.1330 H   0  0  0  0  0  0  0  0  0  0  0  0
   70.5160  148.0650  -45.3230 H   0  0  0  0  0  0  0  0  0  0  0  0
   68.8870  147.9960  -43.4300 H   0  0  0  0  0  0  0  0  0  0  0  0
   66.6940  149.1210  -43.6320 H   0  0  0  0  0  0  0  0  0  0  0  0
   66.0530  150.2750  -45.7370 H   0  0  0  0  0  0  0  0  0  0  0  0
  1  7  2  0  0  0  0
  2  8  1  0  0  0  0
  2 30  1  0  0  0  0
  3  6  1  0  0  0  0
  3 31  1  0  0  0  0
  3 32  1  0  0  0  0
  4 33  1  0  0  0  0
  4 34  1  0  0  0  0
  5 28  1  0  0  0  0
  6  1  1  0  0  0  0
  6  5  2  0  0  0  0
  7  2  1  0  0  0  0
  7 28  1  0  0  0  0
  8 16  2  0  0  0  0
  8 20  1  0  0  0  0
  9  5  1  0  0  0  0
  9 10  1  0  0  0  0
 10 11  2  0  0  0  0
 10 15  1  0  0  0  0
 11 12  1  0  0  0  0
 11 35  1  0  0  0  0
 12 13  2  0  0  0  0
 12 36  1  0  0  0  0
 13 21  1  0  0  0  0
 14 13  1  0  0  0  0
 14 24  1  0  0  0  0
 15 14  2  0  0  0  0
 15 37  1  0  0  0  0
 16 17  1  0  0  0  0
 16 38  1  0  0  0  0
 17 18  2  0  0  0  0
 17 39  1  0  0  0  0
 18 29  1  0  0  0  0
 19 18  1  0  0  0  0
 19 40  1  0  0  0  0
 20 19  2  0  0  0  0
 20 41  1  0  0  0  0
 21 22  2  0  0  0  0
 21 42  1  0  0  0  0
 22 43  1  0  0  0  0
 23 22  1  0  0  0  0
 23 44  1  0  0  0  0
 24 23  2  0  0  0  0
 24 45  1  0  0  0  0
 25  9  2  0  0  0  0
 26 29  2  0  0  0  0
 29 27  2  0  0  0  0
 29  4  1  0  0  0  0
M  END
>  <lm5_entropy_jk>
22.397995528352578

>  <number_of_rotatable_bonds>
5

>  <IC50_NM>
82000

>  <charge>
0

$$$$
