4LBR
 OpenBabel11252210453D

 35 36  0  0  0  0  0  0  0  0999 V2000
   14.2960  -11.8760   19.1790 Cl  0  0  0  0  0  0  0  0  0  0  0  0
   17.9230   -5.9560   13.2200 C   0  0  0  0  0  0  0  0  0  0  0  0
   18.6830   -4.9750   12.5550 C   0  0  0  0  0  0  0  0  0  0  0  0
   16.5710   -6.1090   12.8260 C   0  0  0  0  0  0  0  0  0  0  0  0
   18.1410   -4.1940   11.5270 C   0  0  0  0  0  0  0  0  0  0  0  0
   16.0270   -5.3280   11.7960 C   0  0  0  0  0  0  0  0  0  0  0  0
   16.8070   -4.3660   11.1440 C   0  0  0  0  0  0  0  0  0  0  0  0
   18.6240   -6.7920   14.3140 C   0  0  0  0  0  0  0  0  0  0  0  0
   17.7430   -7.6300   15.1460 N   0  0  0  0  0  0  0  0  0  0  0  0
   17.6920   -9.0010   15.1160 C   0  0  0  0  0  0  0  0  0  0  0  0
   16.8240   -9.6660   16.1300 C   0  0  0  0  0  0  0  0  0  0  0  0
   16.4440   -9.0280   17.3230 C   0  0  0  0  0  0  0  0  0  0  0  0
   16.4040  -10.9850   15.8790 C   0  0  0  0  0  0  0  0  0  0  0  0
   15.5980   -9.6890   18.2190 C   0  0  0  0  0  0  0  0  0  0  0  0
   15.6020  -11.6500   16.8130 C   0  0  0  0  0  0  0  0  0  0  0  0
   15.2000  -11.0010   17.9760 C   0  0  0  0  0  0  0  0  0  0  0  0
   18.3120   -9.6570   14.2980 O   0  0  0  0  0  0  0  0  0  0  0  0
   17.0180   -7.8130   17.6530 O   0  0  0  0  0  0  0  0  0  0  0  0
   16.6760   -6.9400   18.7750 C   0  0  0  0  0  0  0  0  0  0  0  0
   15.5500   -5.9540   18.5150 C   0  0  0  0  0  0  0  0  0  0  0  0
   15.0150   -5.4890   19.5080 O   0  0  0  0  0  0  0  0  0  0  0  0
   15.1640   -5.7630   17.3790 O   0  5  0  0  0  0  0  0  0  0  0  0
   15.7620   -7.0020   13.4240 F   0  0  0  0  0  0  0  0  0  0  0  0
   19.9640   -4.7730   12.9160 F   0  0  0  0  0  0  0  0  0  0  0  0
   15.9410   -3.0970    9.6620 I   0  0  0  0  0  0  0  0  0  0  0  0
   14.9780   -5.4540   11.5360 H   0  0  0  0  0  0  0  0  0  0  0  0
   17.5340   -6.3170   19.0320 H   0  0  0  0  0  0  0  0  0  0  0  0
   18.7470   -3.4210   11.0640 H   0  0  0  0  0  0  0  0  0  0  0  0
   19.1820   -6.1100   14.9740 H   0  0  0  0  0  0  0  0  0  0  0  0
   17.2200   -7.2220   15.9180 H   0  0  0  0  0  0  0  0  0  0  0  0
   16.7080  -11.4990   14.9640 H   0  0  0  0  0  0  0  0  0  0  0  0
   15.3040   -9.2170   19.1420 H   0  0  0  0  0  0  0  0  0  0  0  0
   15.2980  -12.6810   16.6370 H   0  0  0  0  0  0  0  0  0  0  0  0
   16.4140   -7.4940   19.6750 H   0  0  0  0  0  0  0  0  0  0  0  0
   19.3850   -7.4410   13.8580 H   0  0  0  0  0  0  0  0  0  0  0  0
  1 16  1  0  0  0  0
  2  3  2  0  0  0  0
  2  4  1  0  0  0  0
  2  8  1  0  0  0  0
  3  5  1  0  0  0  0
  3 24  1  0  0  0  0
  4  6  2  0  0  0  0
  4 23  1  0  0  0  0
  5  7  2  0  0  0  0
  5 28  1  0  0  0  0
  6  7  1  0  0  0  0
  6 26  1  0  0  0  0
  7 25  1  0  0  0  0
  8  9  1  0  0  0  0
  8 29  1  0  0  0  0
  8 35  1  0  0  0  0
  9 10  1  0  0  0  0
  9 30  1  0  0  0  0
 10 11  1  0  0  0  0
 10 17  2  0  0  0  0
 11 12  2  0  0  0  0
 11 13  1  0  0  0  0
 12 14  1  0  0  0  0
 12 18  1  0  0  0  0
 13 15  2  0  0  0  0
 13 31  1  0  0  0  0
 14 16  2  0  0  0  0
 14 32  1  0  0  0  0
 15 16  1  0  0  0  0
 15 33  1  0  0  0  0
 18 19  1  0  0  0  0
 19 20  1  0  0  0  0
 19 27  1  0  0  0  0
 19 34  1  0  0  0  0
 20 21  2  0  0  0  0
 20 22  1  0  0  0  0
M  CHG  1  22  -1
M  END
>  <deltaG_kcalmol>
-9.56

>  <charge>
-1

>  <lm5_entropy_jk>
25.63780735381752

>  <number_of_rotatable_bonds>
7

$$$$
