4LBR
 OpenBabel11252210453D

 35 36  0  0  0  0  0  0  0  0999 V2000
   14.3830  -12.1260   19.3520 Cl  0  0  0  0  0  0  0  0  0  0  0  0
   17.6030   -6.0420   13.1130 C   0  0  0  0  0  0  0  0  0  0  0  0
   18.4110   -5.0070   12.6360 C   0  0  0  0  0  0  0  0  0  0  0  0
   16.3160   -6.1480   12.5570 C   0  0  0  0  0  0  0  0  0  0  0  0
   18.0060   -4.1580   11.5950 C   0  0  0  0  0  0  0  0  0  0  0  0
   15.8830   -5.2920   11.5340 C   0  0  0  0  0  0  0  0  0  0  0  0
   16.7300   -4.2960   11.0400 C   0  0  0  0  0  0  0  0  0  0  0  0
   18.2140   -6.9970   14.1670 C   0  0  0  0  0  0  0  0  0  0  0  0
   17.2780   -7.8440   14.9300 N   0  0  0  0  0  0  0  0  0  0  0  0
   17.4000   -9.2080   15.0430 C   0  0  0  0  0  0  0  0  0  0  0  0
   16.5960   -9.8800   16.1000 C   0  0  0  0  0  0  0  0  0  0  0  0
   16.1560   -9.1980   17.2430 C   0  0  0  0  0  0  0  0  0  0  0  0
   16.3180  -11.2510   15.9490 C   0  0  0  0  0  0  0  0  0  0  0  0
   15.3780   -9.8740   18.1890 C   0  0  0  0  0  0  0  0  0  0  0  0
   15.6030  -11.9280   16.9420 C   0  0  0  0  0  0  0  0  0  0  0  0
   15.1360  -11.2400   18.0570 C   0  0  0  0  0  0  0  0  0  0  0  0
   18.1260   -9.8560   14.3120 O   0  0  0  0  0  0  0  0  0  0  0  0
   16.6050   -7.9090   17.4680 O   0  0  0  0  0  0  0  0  0  0  0  0
   16.3980   -7.0690   18.6500 C   0  0  0  0  0  0  0  0  0  0  0  0
   15.3530   -5.9760   18.4830 C   0  0  0  0  0  0  0  0  0  0  0  0
   14.9200   -5.4900   19.5180 O   0  0  0  0  0  0  0  0  0  0  0  0
   14.9150   -5.7340   17.3760 O   0  5  0  0  0  0  0  0  0  0  0  0
   15.4600   -7.0570   13.0100 F   0  0  0  0  0  0  0  0  0  0  0  0
   19.6030   -4.8270   13.2140 F   0  0  0  0  0  0  0  0  0  0  0  0
   16.0290   -2.9140    9.5680 I   0  0  0  0  0  0  0  0  0  0  0  0
   14.8660   -5.3900   11.1580 H   0  0  0  0  0  0  0  0  0  0  0  0
   17.3170   -6.5310   18.8890 H   0  0  0  0  0  0  0  0  0  0  0  0
   18.6510   -3.3470   11.2750 H   0  0  0  0  0  0  0  0  0  0  0  0
   18.7960   -6.4020   14.8870 H   0  0  0  0  0  0  0  0  0  0  0  0
   16.6920   -7.4280   15.6510 H   0  0  0  0  0  0  0  0  0  0  0  0
   16.6730  -11.7960   15.0710 H   0  0  0  0  0  0  0  0  0  0  0  0
   15.0230   -9.3620   19.0690 H   0  0  0  0  0  0  0  0  0  0  0  0
   15.4210  -12.9990   16.8510 H   0  0  0  0  0  0  0  0  0  0  0  0
   16.1350   -7.6380   19.5410 H   0  0  0  0  0  0  0  0  0  0  0  0
   18.9520   -7.6470   13.6750 H   0  0  0  0  0  0  0  0  0  0  0  0
  1 16  1  0  0  0  0
  2  3  2  0  0  0  0
  2  4  1  0  0  0  0
  2  8  1  0  0  0  0
  3  5  1  0  0  0  0
  3 24  1  0  0  0  0
  4  6  2  0  0  0  0
  4 23  1  0  0  0  0
  5  7  2  0  0  0  0
  5 28  1  0  0  0  0
  6  7  1  0  0  0  0
  6 26  1  0  0  0  0
  7 25  1  0  0  0  0
  8  9  1  0  0  0  0
  8 29  1  0  0  0  0
  8 35  1  0  0  0  0
  9 10  1  0  0  0  0
  9 30  1  0  0  0  0
 10 11  1  0  0  0  0
 10 17  2  0  0  0  0
 11 12  2  0  0  0  0
 11 13  1  0  0  0  0
 12 14  1  0  0  0  0
 12 18  1  0  0  0  0
 13 15  2  0  0  0  0
 13 31  1  0  0  0  0
 14 16  2  0  0  0  0
 14 32  1  0  0  0  0
 15 16  1  0  0  0  0
 15 33  1  0  0  0  0
 18 19  1  0  0  0  0
 19 20  1  0  0  0  0
 19 27  1  0  0  0  0
 19 34  1  0  0  0  0
 20 21  2  0  0  0  0
 20 22  1  0  0  0  0
M  CHG  1  22  -1
M  END
>  <deltaG_kcalmol>
-9.56

>  <charge>
-1

>  <lm5_entropy_jk>
25.63780735381752

>  <number_of_rotatable_bonds>
7

$$$$
