3F1A
 OpenBabel11252210453D

 25 25  0  0  0  0  0  0  0  0999 V2000
    7.3470   24.1500    4.2000 C   0  0  0  0  0  0  0  0  0  0  0  0
    7.7570   26.9190    2.1020 N   0  0  0  0  0  0  0  0  0  0  0  0
    9.2620   26.4090    4.1850 O   0  0  0  0  0  0  0  0  0  0  0  0
    7.8960   26.7710    3.8180 S   0  0  0  0  0  0  0  0  0  0  0  0
    6.5040   23.0780    4.5010 C   0  0  0  0  0  0  0  0  0  0  0  0
    8.6380   23.7390    1.3450 N   0  0  0  0  0  0  0  0  0  0  0  0
    7.3800   28.0260    4.3650 O   0  0  0  0  0  0  0  0  0  0  0  0
    6.8370   25.4560    4.1620 C   0  0  0  0  0  0  0  0  0  0  0  0
    6.9590   24.7420    0.1700 O   0  0  0  0  0  0  0  0  0  0  0  0
    5.1570   23.3070    4.8020 C   0  0  0  0  0  0  0  0  0  0  0  0
    8.1430   22.5620    0.7430 O   0  0  0  0  0  0  0  0  0  0  0  0
    4.6380   24.6030    4.7290 C   0  0  0  0  0  0  0  0  0  0  0  0
    5.4720   25.6740    4.3910 C   0  0  0  0  0  0  0  0  0  0  0  0
    7.9980   24.8900    0.7890 C   0  0  0  0  0  0  0  0  0  0  0  0
    8.6900   26.1880    1.2260 C   0  0  0  0  0  0  0  0  0  0  0  0
    8.4040   23.9460    3.9830 H   0  0  0  0  0  0  0  0  0  0  0  0
    7.5180   27.8530    1.7190 H   0  0  0  0  0  0  0  0  0  0  0  0
    6.8990   22.0590    4.4720 H   0  0  0  0  0  0  0  0  0  0  0  0
    9.6800   23.6700    1.4110 H   0  0  0  0  0  0  0  0  0  0  0  0
    4.5070   22.4740    5.0770 H   0  0  0  0  0  0  0  0  0  0  0  0
    8.3440   21.8240    1.5170 H   0  0  0  0  0  0  0  0  0  0  0  0
    3.5760   24.7720    4.9220 H   0  0  0  0  0  0  0  0  0  0  0  0
    5.0360   26.6740    4.3030 H   0  0  0  0  0  0  0  0  0  0  0  0
    8.9430   26.7850    0.3000 H   0  0  0  0  0  0  0  0  0  0  0  0
    9.6730   25.9700    1.7400 H   0  0  0  0  0  0  0  0  0  0  0  0
  1  8  2  0  0  0  0
  1  5  1  0  0  0  0
  1 16  1  0  0  0  0
  2 15  1  0  0  0  0
  2  4  1  0  0  0  0
  2 17  1  0  0  0  0
  3  4  2  0  0  0  0
  4  8  1  0  0  0  0
  4  7  2  0  0  0  0
  5 10  2  0  0  0  0
  5 18  1  0  0  0  0
  6 11  1  0  0  0  0
  6 14  1  0  0  0  0
  6 19  1  0  0  0  0
  8 13  1  0  0  0  0
  9 14  2  0  0  0  0
 10 12  1  0  0  0  0
 10 20  1  0  0  0  0
 11 21  1  0  0  0  0
 12 13  2  0  0  0  0
 12 22  1  0  0  0  0
 13 23  1  0  0  0  0
 14 15  1  0  0  0  0
 15 24  1  0  0  0  0
 15 25  1  0  0  0  0
M  END
>  <lm5_entropy_jk>
20.21647283461167

>  <number_of_rotatable_bonds>
5

>  <deltaG_kcalmol>
-9.85

>  <charge>
0

$$$$
