JAK1_12.pdb
 OpenBabel11252210453D

 34 36  0  0  0  0  0  0  0  0999 V2000
  -17.4360   27.4040   -1.3630 C   0  0  0  0  0  0  0  0  0  0  0  0
  -17.9740   26.1540   -1.3710 C   0  0  0  0  0  0  0  0  0  0  0  0
  -17.3060   25.0640   -0.7850 N   0  0  0  0  0  0  0  0  0  0  0  0
  -16.0330   25.1910   -0.1640 C   0  0  0  0  0  0  0  0  0  0  0  0
  -15.4840   24.2070    0.2810 O   0  0  0  0  0  0  0  0  0  0  0  0
  -15.4790   26.5850   -0.1360 C   0  0  0  0  0  0  0  0  0  0  0  0
  -16.1690   27.6560   -0.7270 C   0  0  0  0  0  0  0  0  0  0  0  0
  -15.5310   28.9580   -0.6350 C   0  0  0  0  0  0  0  0  0  0  0  0
  -14.3190   29.0820    0.0030 N   0  0  0  0  0  0  0  0  0  0  0  0
  -13.7530   27.9650    0.5600 C   0  0  0  0  0  0  0  0  0  0  0  0
  -14.2750   26.7180    0.5080 N   0  0  0  0  0  0  0  0  0  0  0  0
  -16.1360   30.1070   -1.1130 N   0  0  0  0  0  0  0  0  0  0  0  0
  -15.4480   31.4370   -1.0840 C   0  0  0  0  0  0  0  0  0  0  0  0
  -14.4260   31.5560   -2.2360 C   0  0  0  0  0  0  0  0  0  0  0  0
  -13.7510   32.9300   -2.1730 C   0  0  0  0  0  0  0  0  0  0  0  0
  -14.7860   34.0580   -2.2930 C   0  0  0  0  0  0  0  0  0  0  0  0
  -15.8650   33.9430   -1.2090 C   0  0  0  0  0  0  0  0  0  0  0  0
  -16.5130   32.5490   -1.1870 C   0  0  0  0  0  0  0  0  0  0  0  0
  -17.9780   28.2110   -1.8590 H   0  0  0  0  0  0  0  0  0  0  0  0
  -18.9390   25.9400   -1.8480 H   0  0  0  0  0  0  0  0  0  0  0  0
  -17.8170   24.1550   -0.7330 H   0  0  0  0  0  0  0  0  0  0  0  0
  -12.7870   28.1100    1.0860 H   0  0  0  0  0  0  0  0  0  0  0  0
  -16.8830   30.0010   -1.8100 H   0  0  0  0  0  0  0  0  0  0  0  0
  -14.9270   31.5250   -0.0910 H   0  0  0  0  0  0  0  0  0  0  0  0
  -14.9610   31.4460   -3.2110 H   0  0  0  0  0  0  0  0  0  0  0  0
  -13.6670   30.7480   -2.1510 H   0  0  0  0  0  0  0  0  0  0  0  0
  -13.2200   33.0360   -1.2030 H   0  0  0  0  0  0  0  0  0  0  0  0
  -13.0190   33.0160   -3.0030 H   0  0  0  0  0  0  0  0  0  0  0  0
  -14.2870   35.0470   -2.1940 H   0  0  0  0  0  0  0  0  0  0  0  0
  -15.2750   34.0060   -3.2960 H   0  0  0  0  0  0  0  0  0  0  0  0
  -15.4210   34.1580   -0.2120 H   0  0  0  0  0  0  0  0  0  0  0  0
  -16.6670   34.7010   -1.4060 H   0  0  0  0  0  0  0  0  0  0  0  0
  -17.1290   32.4140   -2.1110 H   0  0  0  0  0  0  0  0  0  0  0  0
  -17.1920   32.5000   -0.3100 H   0  0  0  0  0  0  0  0  0  0  0  0
  1  2  2  0  0  0  0
  1  7  1  0  0  0  0
  2  3  1  0  0  0  0
  4  6  1  0  0  0  0
  4  3  1  0  0  0  0
  4  5  2  0  0  0  0
  6  7  1  0  0  0  0
  6 11  2  0  0  0  0
  7  8  2  0  0  0  0
  8  9  1  0  0  0  0
  8 12  1  0  0  0  0
 10  9  2  0  0  0  0
 10 11  1  0  0  0  0
 13 14  1  0  0  0  0
 13 18  1  0  0  0  0
 13 12  1  0  0  0  0
 14 15  1  0  0  0  0
 15 16  1  0  0  0  0
 16 17  1  0  0  0  0
 17 18  1  0  0  0  0
 19  1  1  0  0  0  0
 20  2  1  0  0  0  0
 21  3  1  0  0  0  0
 22 10  1  0  0  0  0
 23 12  1  0  0  0  0
 24 13  1  0  0  0  0
 25 14  1  0  0  0  0
 26 14  1  0  0  0  0
 27 15  1  0  0  0  0
 28 15  1  0  0  0  0
 29 16  1  0  0  0  0
 30 16  1  0  0  0  0
 31 17  1  0  0  0  0
 32 17  1  0  0  0  0
 33 18  1  0  0  0  0
 34 18  1  0  0  0  0
M  END
>  <charge>
0

>  <pKi>
6.63

>  <number_of_rotatable_bonds>
2

>  <lm5_entropy_jk>
17.80530520339831

$$$$
