3NU3-chB_H.pdb
 OpenBabel11252210453D

 70 72  0  0  1  0  0  0  0  0999 V2000
    8.7160   -6.4780   18.5130 C   0  0  0  0  0  0  0  0  0  0  0  0
    5.9710   -3.2060   16.9990 N   0  0  0  0  0  0  0  0  0  0  0  0
    7.2920   -4.9550   17.4220 O   0  0  0  0  0  0  0  0  0  0  0  0
    3.4970   -1.1050   12.9910 S   0  0  0  0  0  0  0  0  0  0  0  0
    9.7130   -4.8550   16.9600 C   0  0  0  0  0  0  0  0  0  0  0  0
    4.5280   -0.1620   13.9710 N   0  0  0  0  0  0  0  0  0  0  0  0
    6.8920   -4.3930   15.2070 O   0  0  0  0  0  0  0  0  0  0  0  0
    6.7170   -4.2090   16.3950 C   0  0  0  0  0  0  0  0  0  0  0  0
   -0.3420    3.0590   11.3110 N   0  0  0  0  0  0  0  0  0  0  0  0
    5.1390   -0.5190   17.5880 O   0  0  0  0  0  0  0  0  0  0  0  0
    8.4820   -5.7540   17.1680 C   0  0  1  0  0  0  0  0  0  0  0  0
    2.8010   -2.0440   13.8660 O   0  0  0  0  0  0  0  0  0  0  0  0
    4.8700   -2.5210   16.2560 C   0  0  2  0  0  0  0  0  0  0  0  0
    4.3570   -1.7150   11.9780 O   0  0  0  0  0  0  0  0  0  0  0  0
    5.2280   -1.0080   16.2350 C   0  0  1  0  0  0  0  0  0  0  0  0
    9.8590   -5.8550   19.1440 O   0  0  0  0  0  0  0  0  0  0  0  0
    3.5100   -2.8490   16.9020 C   0  0  0  0  0  0  0  0  0  0  0  0
    3.1880   -4.3110   16.7540 C   0  0  0  0  0  0  0  0  0  0  0  0
    3.4300   -5.2070   17.8050 C   0  0  0  0  0  0  0  0  0  0  0  0
    2.6600   -4.7860   15.5420 C   0  0  0  0  0  0  0  0  0  0  0  0
    3.1670   -6.5700   17.6360 C   0  0  0  0  0  0  0  0  0  0  0  0
    2.3760   -6.1430   15.3900 C   0  0  0  0  0  0  0  0  0  0  0  0
    2.6450   -7.0420   16.4290 C   0  0  0  0  0  0  0  0  0  0  0  0
    4.2730   -0.0930   15.4200 C   0  0  0  0  0  0  0  0  0  0  0  0
    5.3920    0.8830   13.3720 C   0  0  0  0  0  0  0  0  0  0  0  0
    6.9160    0.6010   13.5090 C   0  0  0  0  0  0  0  0  0  0  0  0
    2.3660    0.0260   12.3810 C   0  0  0  0  0  0  0  0  0  0  0  0
    1.1860    0.2330   13.1190 C   0  0  0  0  0  0  0  0  0  0  0  0
    0.2680    1.2000   12.7520 C   0  0  0  0  0  0  0  0  0  0  0  0
    0.5160    2.0080   11.6100 C   0  0  0  0  0  0  0  0  0  0  0  0
    1.6800    1.7690   10.8360 C   0  0  0  0  0  0  0  0  0  0  0  0
    2.5870    0.7940   11.2310 C   0  0  0  0  0  0  0  0  0  0  0  0
    7.3290   -0.6950   12.7990 C   0  0  0  0  0  0  0  0  0  0  0  0
    7.6830    1.8120   12.9470 C   0  0  0  0  0  0  0  0  0  0  0  0
   10.6540   -5.1950   18.1240 C   0  0  0  0  0  0  0  0  0  0  0  0
    8.9590   -7.5530   18.3580 H   0  0  0  0  0  0  0  0  0  0  0  0
    7.8790   -6.3300   19.2310 H   0  0  0  0  0  0  0  0  0  0  0  0
    5.8790   -3.2150   18.0320 H   0  0  0  0  0  0  0  0  0  0  0  0
    9.4190   -3.7810   16.9940 H   0  0  0  0  0  0  0  0  0  0  0  0
   10.2010   -5.0540   15.9800 H   0  0  0  0  0  0  0  0  0  0  0  0
   -1.2310    3.1280   11.8360 H   0  0  0  0  0  0  0  0  0  0  0  0
   -0.3060    3.4970   10.3900 H   0  0  0  0  0  0  0  0  0  0  0  0
    6.0190   -0.0290   17.7810 H   0  0  0  0  0  0  0  0  0  0  0  0
    8.2730   -6.4380   16.3210 H   0  0  0  0  0  0  0  0  0  0  0  0
    4.8630   -2.8760   15.1860 H   0  0  0  0  0  0  0  0  0  0  0  0
    6.2800   -0.8800   15.8810 H   0  0  0  0  0  0  0  0  0  0  0  0
    2.7140   -2.2420   16.3980 H   0  0  0  0  0  0  0  0  0  0  0  0
    3.5150   -2.5480   17.9780 H   0  0  0  0  0  0  0  0  0  0  0  0
    3.8210   -4.8450   18.7580 H   0  0  0  0  0  0  0  0  0  0  0  0
    2.4610   -4.0710   14.7300 H   0  0  0  0  0  0  0  0  0  0  0  0
    3.3650   -7.2660   18.4560 H   0  0  0  0  0  0  0  0  0  0  0  0
    1.9340   -6.5030   14.4630 H   0  0  0  0  0  0  0  0  0  0  0  0
    2.4460   -8.1070   16.3070 H   0  0  0  0  0  0  0  0  0  0  0  0
    3.2080   -0.3700   15.6350 H   0  0  0  0  0  0  0  0  0  0  0  0
    4.4450    0.9530   15.7900 H   0  0  0  0  0  0  0  0  0  0  0  0
    5.1780    1.8700   13.8650 H   0  0  0  0  0  0  0  0  0  0  0  0
    5.1570    0.9860   12.2820 H   0  0  0  0  0  0  0  0  0  0  0  0
    7.1710    0.5200   14.5960 H   0  0  0  0  0  0  0  0  0  0  0  0
    0.9870   -0.3860   14.0010 H   0  0  0  0  0  0  0  0  0  0  0  0
   -0.6420    1.3640   13.3280 H   0  0  0  0  0  0  0  0  0  0  0  0
    1.8660    2.3590    9.9370 H   0  0  0  0  0  0  0  0  0  0  0  0
    3.4900    0.6410   10.6300 H   0  0  0  0  0  0  0  0  0  0  0  0
    8.4350   -0.7910   12.8140 H   0  0  0  0  0  0  0  0  0  0  0  0
    6.8820   -1.5660   13.3220 H   0  0  0  0  0  0  0  0  0  0  0  0
    6.9850   -0.6810   11.7440 H   0  0  0  0  0  0  0  0  0  0  0  0
    8.7680    1.7000   13.1580 H   0  0  0  0  0  0  0  0  0  0  0  0
    7.5430    1.9000   11.8480 H   0  0  0  0  0  0  0  0  0  0  0  0
    7.3340    2.7530   13.4270 H   0  0  0  0  0  0  0  0  0  0  0  0
   11.0510   -4.3010   18.6380 H   0  0  0  0  0  0  0  0  0  0  0  0
   11.4580   -5.9010   17.8200 H   0  0  0  0  0  0  0  0  0  0  0  0
  1 11  1  0  0  0  0
  1 16  1  0  0  0  0
  1 36  1  0  0  0  0
  1 37  1  0  0  0  0
  2  8  1  0  0  0  0
  2 13  1  0  0  0  0
  2 38  1  0  0  0  0
  3  8  1  0  0  0  0
  3 11  1  0  0  0  0
  4  6  1  0  0  0  0
  4 12  2  0  0  0  0
  4 14  2  0  0  0  0
  4 27  1  0  0  0  0
  5 11  1  0  0  0  0
  5 35  1  0  0  0  0
  5 39  1  0  0  0  0
  5 40  1  0  0  0  0
  6 24  1  0  0  0  0
  6 25  1  0  0  0  0
  7  8  2  0  0  0  0
  9 30  1  0  0  0  0
  9 41  1  0  0  0  0
  9 42  1  0  0  0  0
 10 15  1  0  0  0  0
 10 43  1  0  0  0  0
 11 44  1  6  0  0  0
 13 15  1  0  0  0  0
 13 17  1  0  0  0  0
 13 45  1  6  0  0  0
 15 24  1  0  0  0  0
 15 46  1  6  0  0  0
 16 35  1  0  0  0  0
 17 18  1  0  0  0  0
 17 47  1  0  0  0  0
 17 48  1  0  0  0  0
 18 19  2  0  0  0  0
 18 20  1  0  0  0  0
 19 21  1  0  0  0  0
 19 49  1  0  0  0  0
 20 22  2  0  0  0  0
 20 50  1  0  0  0  0
 21 23  2  0  0  0  0
 21 51  1  0  0  0  0
 22 23  1  0  0  0  0
 22 52  1  0  0  0  0
 23 53  1  0  0  0  0
 24 54  1  0  0  0  0
 24 55  1  0  0  0  0
 25 26  1  0  0  0  0
 25 56  1  0  0  0  0
 25 57  1  0  0  0  0
 26 33  1  0  0  0  0
 26 34  1  0  0  0  0
 26 58  1  0  0  0  0
 27 28  2  0  0  0  0
 27 32  1  0  0  0  0
 28 29  1  0  0  0  0
 28 59  1  0  0  0  0
 29 30  2  0  0  0  0
 29 60  1  0  0  0  0
 30 31  1  0  0  0  0
 31 32  2  0  0  0  0
 31 61  1  0  0  0  0
 32 62  1  0  0  0  0
 33 63  1  0  0  0  0
 33 64  1  0  0  0  0
 33 65  1  0  0  0  0
 34 66  1  0  0  0  0
 34 67  1  0  0  0  0
 34 68  1  0  0  0  0
 35 69  1  0  0  0  0
 35 70  1  0  0  0  0
M  END
>  <charge>
0

>  <KI_NM>
0.18

>  <number_of_rotatable_bonds>
13

>  <lm5_entropy_jk>
43.32186921337585

>  <ligand_crystal_conformation>
B

$$$$
