3QTW
 OpenBabel11252210453D

 33 35  0  0  1  0  0  0  0  0999 V2000
   65.7760  154.3600  -50.4230 N   0  0  0  0  0  0  0  0  0  0  0  0
   67.1510  153.5740  -52.1020 N   0  0  0  0  0  0  0  0  0  0  0  0
   71.0240  150.0640  -48.0100 N   0  0  0  0  0  0  0  0  0  0  0  0
   64.4150  154.6540  -48.5770 N   0  0  0  0  0  0  0  0  0  0  0  0
   66.8530  153.6110  -50.8100 C   0  0  0  0  0  0  0  0  0  0  0  0
   67.4790  152.8740  -49.8600 C   0  0  0  0  0  0  0  0  0  0  0  0
   68.6190  152.0010  -50.1430 C   0  0  0  0  0  0  0  0  0  0  0  0
   69.1040  151.0840  -49.0690 C   0  0  0  0  0  0  0  0  0  0  0  0
   70.4880  150.9150  -48.9110 C   0  0  0  0  0  0  0  0  0  0  0  0
   70.1900  149.3340  -47.2380 C   0  0  0  0  0  0  0  0  0  0  0  0
   68.7940  149.4220  -47.3490 C   0  0  0  0  0  0  0  0  0  0  0  0
   68.2330  150.3070  -48.2820 C   0  0  0  0  0  0  0  0  0  0  0  0
   65.5420  154.1350  -49.1440 C   0  0  0  0  0  0  0  0  0  0  0  0
   63.7220  154.4670  -47.3880 C   0  0  0  0  0  0  0  0  0  0  0  0
   62.7870  155.4390  -47.0000 C   0  0  0  0  0  0  0  0  0  0  0  0
   62.0440  155.2980  -45.8150 C   0  0  0  0  0  0  0  0  0  0  0  0
   62.2310  154.1650  -45.0080 C   0  0  0  0  0  0  0  0  0  0  0  0
   63.1460  153.1750  -45.3960 C   0  0  0  0  0  0  0  0  0  0  0  0
   63.8780  153.3210  -46.5880 C   0  0  0  0  0  0  0  0  0  0  0  0
   69.1710  152.0050  -51.2280 O   0  0  0  0  0  0  0  0  0  0  0  0
   66.7110  153.1140  -48.3230 S   0  0  0  0  0  0  0  0  0  0  0  0
   66.8180  154.3020  -52.7200 H   0  0  0  0  0  0  0  0  0  0  0  0
   68.0160  153.0910  -52.3070 H   0  0  0  0  0  0  0  0  0  0  0  0
   71.1840  151.4790  -49.5400 H   0  0  0  0  0  0  0  0  0  0  0  0
   70.6480  148.6480  -46.5200 H   0  0  0  0  0  0  0  0  0  0  0  0
   68.1550  148.8000  -46.7210 H   0  0  0  0  0  0  0  0  0  0  0  0
   67.1520  150.3690  -48.4030 H   0  0  0  0  0  0  0  0  0  0  0  0
   63.9090  155.2320  -49.2430 H   0  0  0  0  0  0  0  0  0  0  0  0
   62.6320  156.3150  -47.6240 H   0  0  0  0  0  0  0  0  0  0  0  0
   61.3260  156.0670  -45.5240 H   0  0  0  0  0  0  0  0  0  0  0  0
   61.6670  154.0550  -44.0800 H   0  0  0  0  0  0  0  0  0  0  0  0
   63.2920  152.2930  -44.7720 H   0  0  0  0  0  0  0  0  0  0  0  0
   64.5520  152.5250  -46.8830 H   0  0  0  0  0  0  0  0  0  0  0  0
  1  5  1  0  0  0  0
  1 13  2  0  0  0  0
  2  5  1  0  0  0  0
  2 22  1  0  0  0  0
  2 23  1  0  0  0  0
  3  9  2  0  0  0  0
  3 10  1  0  0  0  0
  4 13  1  0  0  0  0
  4 14  1  0  0  0  0
  4 28  1  0  0  0  0
  5  6  2  0  0  0  0
  6 21  1  0  0  0  0
  7  6  1  0  0  0  0
  7  8  1  0  0  0  0
  7 20  2  0  0  0  0
  8  9  1  0  0  0  0
  8 12  2  0  0  0  0
  9 24  1  0  0  0  0
 10 11  2  0  0  0  0
 10 25  1  0  0  0  0
 11 12  1  0  0  0  0
 11 26  1  0  0  0  0
 12 27  1  0  0  0  0
 13 21  1  0  0  0  0
 14 15  2  0  0  0  0
 14 19  1  0  0  0  0
 15 16  1  0  0  0  0
 15 29  1  0  0  0  0
 16 17  2  0  0  0  0
 16 30  1  0  0  0  0
 17 18  1  0  0  0  0
 17 31  1  0  0  0  0
 18 19  2  0  0  0  0
 18 32  1  0  0  0  0
 19 33  1  0  0  0  0
M  END
>  <lm5_entropy_jk>
20.66385753466715

>  <number_of_rotatable_bonds>
4

>  <IC50_NM>
650

>  <charge>
0

$$$$
