3RTS
 OpenBabel11252210453D

 31 31  0  0  0  0  0  0  0  0999 V2000
    2.8760   23.9710    5.0780 C   0  0  0  0  0  0  0  0  0  0  0  0
    8.7970   23.8790    1.0100 N   0  0  0  0  0  0  0  0  0  0  0  0
    7.6680   28.1900    4.4060 O   0  0  0  0  0  0  0  0  0  0  0  0
    8.0670   26.9530    3.7830 S   0  0  0  0  0  0  0  0  0  0  0  0
    2.9180   22.7790    5.8130 C   0  0  0  0  0  0  0  0  0  0  0  0
    8.0190   27.2010    2.1720 N   0  0  0  0  0  0  0  0  0  0  0  0
    9.3500   26.3420    4.0730 O   0  0  0  0  0  0  0  0  0  0  0  0
    4.0360   24.7520    4.9410 C   0  0  0  0  0  0  0  0  0  0  0  0
    6.8730   24.8380    0.2730 O   0  0  0  0  0  0  0  0  0  0  0  0
    4.1160   22.3750    6.4210 C   0  0  0  0  0  0  0  0  0  0  0  0
    8.4060   22.5640    0.5600 O   0  0  0  0  0  0  0  0  0  0  0  0
    5.2750   23.1620    6.2830 C   0  0  0  0  0  0  0  0  0  0  0  0
    5.2450   24.3540    5.5370 C   0  0  0  0  0  0  0  0  0  0  0  0
    6.4840   25.2480    5.4660 C   0  0  0  0  0  0  0  0  0  0  0  0
    6.8630   25.7500    3.9870 C   0  0  0  0  0  0  0  0  0  0  0  0
    8.6510   26.3350    1.0490 C   0  0  0  0  0  0  0  0  0  0  0  0
    8.0040   24.9690    0.7460 C   0  0  0  0  0  0  0  0  0  0  0  0
    1.9420   24.2930    4.6180 H   0  0  0  0  0  0  0  0  0  0  0  0
    9.7570   23.9690    1.3580 H   0  0  0  0  0  0  0  0  0  0  0  0
    2.0180   22.1720    5.9140 H   0  0  0  0  0  0  0  0  0  0  0  0
    7.0240   27.3820    2.0920 H   0  0  0  0  0  0  0  0  0  0  0  0
    3.9850   25.6790    4.3820 H   0  0  0  0  0  0  0  0  0  0  0  0
    4.1360   21.4610    7.0120 H   0  0  0  0  0  0  0  0  0  0  0  0
    8.4850   21.9730    1.3720 H   0  0  0  0  0  0  0  0  0  0  0  0
    6.1920   22.8540    6.7770 H   0  0  0  0  0  0  0  0  0  0  0  0
    6.3040   26.1120    6.1250 H   0  0  0  0  0  0  0  0  0  0  0  0
    7.3380   24.7160    5.9220 H   0  0  0  0  0  0  0  0  0  0  0  0
    7.3670   24.9870    3.3950 H   0  0  0  0  0  0  0  0  0  0  0  0
    6.0490   26.2330    3.4560 H   0  0  0  0  0  0  0  0  0  0  0  0
    8.6340   26.8670    0.0820 H   0  0  0  0  0  0  0  0  0  0  0  0
    9.7210   26.1550    1.2430 H   0  0  0  0  0  0  0  0  0  0  0  0
  1  5  2  0  0  0  0
  1  8  1  0  0  0  0
  1 18  1  0  0  0  0
  2 11  1  0  0  0  0
  2 17  1  0  0  0  0
  2 19  1  0  0  0  0
  3  4  2  0  0  0  0
  4  6  1  0  0  0  0
  4  7  2  0  0  0  0
  4 15  1  0  0  0  0
  5 10  1  0  0  0  0
  5 20  1  0  0  0  0
  6 16  1  0  0  0  0
  6 21  1  0  0  0  0
  8 13  2  0  0  0  0
  8 22  1  0  0  0  0
  9 17  2  0  0  0  0
 10 12  2  0  0  0  0
 10 23  1  0  0  0  0
 11 24  1  0  0  0  0
 12 13  1  0  0  0  0
 12 25  1  0  0  0  0
 13 14  1  0  0  0  0
 14 15  1  0  0  0  0
 14 26  1  0  0  0  0
 14 27  1  0  0  0  0
 15 28  1  0  0  0  0
 15 29  1  0  0  0  0
 16 17  1  0  0  0  0
 16 30  1  0  0  0  0
 16 31  1  0  0  0  0
M  END
>  <lm5_entropy_jk>
23.08244794499805

>  <number_of_rotatable_bonds>
7

>  <deltaG_kcalmol>
-10.43

>  <charge>
0

$$$$
