3RTS
 OpenBabel11252210453D

 31 31  0  0  0  0  0  0  0  0999 V2000
    2.8070   23.9630    4.8550 C   0  0  0  0  0  0  0  0  0  0  0  0
    8.8670   24.2430    0.6460 N   0  0  0  0  0  0  0  0  0  0  0  0
    7.4570   27.9650    4.4140 O   0  0  0  0  0  0  0  0  0  0  0  0
    7.9880   26.8810    3.6280 S   0  0  0  0  0  0  0  0  0  0  0  0
    2.7780   22.7240    5.5070 C   0  0  0  0  0  0  0  0  0  0  0  0
    7.8900   27.3550    2.0690 N   0  0  0  0  0  0  0  0  0  0  0  0
    9.3170   26.3580    3.8750 O   0  0  0  0  0  0  0  0  0  0  0  0
    4.0340   24.6130    4.6380 C   0  0  0  0  0  0  0  0  0  0  0  0
    6.7490   24.9030    0.1440 O   0  0  0  0  0  0  0  0  0  0  0  0
    3.9740   22.1340    5.9390 C   0  0  0  0  0  0  0  0  0  0  0  0
    8.6380   22.9190    0.1390 O   0  0  0  0  0  0  0  0  0  0  0  0
    5.1980   22.7960    5.7300 C   0  0  0  0  0  0  0  0  0  0  0  0
    5.2380   24.0450    5.0850 C   0  0  0  0  0  0  0  0  0  0  0  0
    6.5500   24.8330    5.0340 C   0  0  0  0  0  0  0  0  0  0  0  0
    6.8790   25.5710    3.6510 C   0  0  0  0  0  0  0  0  0  0  0  0
    8.3840   26.6410    0.7790 C   0  0  0  0  0  0  0  0  0  0  0  0
    7.8980   25.2030    0.4940 C   0  0  0  0  0  0  0  0  0  0  0  0
    1.8760   24.4240    4.5300 H   0  0  0  0  0  0  0  0  0  0  0  0
    9.8250   24.4600    0.9290 H   0  0  0  0  0  0  0  0  0  0  0  0
    1.8270   22.2170    5.6670 H   0  0  0  0  0  0  0  0  0  0  0  0
    6.9030   27.5960    2.0900 H   0  0  0  0  0  0  0  0  0  0  0  0
    4.0370   25.5790    4.1520 H   0  0  0  0  0  0  0  0  0  0  0  0
    3.9410   21.1690    6.4400 H   0  0  0  0  0  0  0  0  0  0  0  0
    8.6450   22.3210    0.9490 H   0  0  0  0  0  0  0  0  0  0  0  0
    6.1180   22.3470    6.0920 H   0  0  0  0  0  0  0  0  0  0  0  0
    6.5130   25.5750    5.8480 H   0  0  0  0  0  0  0  0  0  0  0  0
    7.3800   24.1540    5.3000 H   0  0  0  0  0  0  0  0  0  0  0  0
    7.4610   24.9410    2.9820 H   0  0  0  0  0  0  0  0  0  0  0  0
    6.0330   26.0560    3.1720 H   0  0  0  0  0  0  0  0  0  0  0  0
    8.1220   27.2180   -0.1250 H   0  0  0  0  0  0  0  0  0  0  0  0
    9.4860   26.6070    0.7520 H   0  0  0  0  0  0  0  0  0  0  0  0
  1  5  2  0  0  0  0
  1  8  1  0  0  0  0
  1 18  1  0  0  0  0
  2 11  1  0  0  0  0
  2 17  1  0  0  0  0
  2 19  1  0  0  0  0
  3  4  2  0  0  0  0
  4  6  1  0  0  0  0
  4  7  2  0  0  0  0
  4 15  1  0  0  0  0
  5 10  1  0  0  0  0
  5 20  1  0  0  0  0
  6 16  1  0  0  0  0
  6 21  1  0  0  0  0
  8 13  2  0  0  0  0
  8 22  1  0  0  0  0
  9 17  2  0  0  0  0
 10 12  2  0  0  0  0
 10 23  1  0  0  0  0
 11 24  1  0  0  0  0
 12 13  1  0  0  0  0
 12 25  1  0  0  0  0
 13 14  1  0  0  0  0
 14 15  1  0  0  0  0
 14 26  1  0  0  0  0
 14 27  1  0  0  0  0
 15 28  1  0  0  0  0
 15 29  1  0  0  0  0
 16 17  1  0  0  0  0
 16 30  1  0  0  0  0
 16 31  1  0  0  0  0
M  END
>  <lm5_entropy_jk>
23.08244794499805

>  <number_of_rotatable_bonds>
7

>  <deltaG_kcalmol>
-10.43

>  <charge>
0

$$$$
