3rk9.pdb
 OpenBabel11252210453D

 32 33  0  0  1  0  0  0  0  0999 V2000
   64.4080  155.0960  -48.5140 N   0  0  0  0  0  0  0  0  0  0  0  0
   65.6970  154.5570  -50.4590 N   0  0  0  0  0  0  0  0  0  0  0  0
   67.2320  153.6380  -52.0700 N   0  0  0  0  0  0  0  0  0  0  0  0
   70.7600  150.1900  -47.6030 N   0  0  0  0  0  0  0  0  0  0  0  0
   62.9210  155.8260  -46.7080 C   0  0  0  0  0  0  0  0  0  0  0  0
   63.8350  154.6910  -47.1860 C   0  0  0  0  0  0  0  0  0  0  0  0
   63.0590  153.3710  -47.2920 C   0  0  0  0  0  0  0  0  0  0  0  0
   65.3800  154.3720  -49.1520 C   0  0  0  0  0  0  0  0  0  0  0  0
   66.7900  153.7150  -50.7920 C   0  0  0  0  0  0  0  0  0  0  0  0
   67.3520  152.9350  -49.7460 C   0  0  0  0  0  0  0  0  0  0  0  0
   68.4390  152.0330  -49.9130 C   0  0  0  0  0  0  0  0  0  0  0  0
   68.8700  151.1430  -48.7910 C   0  0  0  0  0  0  0  0  0  0  0  0
   67.9920  150.2790  -48.1310 C   0  0  0  0  0  0  0  0  0  0  0  0
   68.5140  149.3600  -47.2150 C   0  0  0  0  0  0  0  0  0  0  0  0
   69.8980  149.3260  -46.9930 C   0  0  0  0  0  0  0  0  0  0  0  0
   70.2460  151.0880  -48.4780 C   0  0  0  0  0  0  0  0  0  0  0  0
   69.0570  151.9420  -50.9770 O   0  0  0  0  0  0  0  0  0  0  0  0
   66.4570  153.1480  -48.2860 S   0  0  0  0  0  0  0  0  0  0  0  0
   63.4870  156.7720  -46.5760 H   0  0  0  0  0  0  0  0  0  0  0  0
   62.4720  155.5510  -45.7250 H   0  0  0  0  0  0  0  0  0  0  0  0
   62.0950  156.0000  -47.4350 H   0  0  0  0  0  0  0  0  0  0  0  0
   64.6840  154.5710  -46.4700 H   0  0  0  0  0  0  0  0  0  0  0  0
   62.3830  153.3900  -48.1740 H   0  0  0  0  0  0  0  0  0  0  0  0
   62.4490  153.2210  -46.3720 H   0  0  0  0  0  0  0  0  0  0  0  0
   63.7670  152.5180  -47.3720 H   0  0  0  0  0  0  0  0  0  0  0  0
   63.6980  155.5610  -49.1290 H   0  0  0  0  0  0  0  0  0  0  0  0
   66.8540  154.2410  -52.8200 H   0  0  0  0  0  0  0  0  0  0  0  0
   68.0640  153.0630  -52.2880 H   0  0  0  0  0  0  0  0  0  0  0  0
   66.9140  150.2970  -48.3170 H   0  0  0  0  0  0  0  0  0  0  0  0
   67.8550  148.6690  -46.6820 H   0  0  0  0  0  0  0  0  0  0  0  0
   70.3290  148.5850  -46.3050 H   0  0  0  0  0  0  0  0  0  0  0  0
   70.9530  151.7890  -48.9490 H   0  0  0  0  0  0  0  0  0  0  0  0
  1  6  1  0  0  0  0
  1  8  1  0  0  0  0
  1 26  1  0  0  0  0
  2  8  2  0  0  0  0
  2  9  1  0  0  0  0
  3  9  1  0  0  0  0
  3 27  1  0  0  0  0
  3 28  1  0  0  0  0
  4 15  2  0  0  0  0
  4 16  1  0  0  0  0
  5  6  1  0  0  0  0
  5 19  1  0  0  0  0
  5 20  1  0  0  0  0
  5 21  1  0  0  0  0
  6  7  1  0  0  0  0
  6 22  1  0  0  0  0
  7 23  1  0  0  0  0
  7 24  1  0  0  0  0
  7 25  1  0  0  0  0
  8 18  1  0  0  0  0
  9 10  2  0  0  0  0
 10 18  1  0  0  0  0
 11 10  1  0  0  0  0
 11 12  1  0  0  0  0
 11 17  2  0  0  0  0
 12 13  1  0  0  0  0
 12 16  2  0  0  0  0
 13 14  2  0  0  0  0
 13 29  1  0  0  0  0
 14 15  1  0  0  0  0
 14 30  1  0  0  0  0
 15 31  1  0  0  0  0
 16 32  1  0  0  0  0
M  END
>  <lm5_entropy_jk>
34.96174716553827

>  <number_of_rotatable_bonds>
4

>  <IC50_NM>
520

>  <charge>
0

$$$$
