3rjc.pdb
 OpenBabel11252210453D

 34 36  0  0  0  0  0  0  0  0999 V2000
   65.8710  154.3480  -50.3450 N   0  0  0  0  0  0  0  0  0  0  0  0
   66.9970  153.5370  -50.6670 C   0  0  0  0  0  0  0  0  0  0  0  0
   67.4760  153.5240  -51.9380 N   0  0  0  0  0  0  0  0  0  0  0  0
   67.5010  152.7160  -49.6340 C   0  0  0  0  0  0  0  0  0  0  0  0
   68.5530  151.7490  -49.7230 C   0  0  0  0  0  0  0  0  0  0  0  0
   68.7070  150.8000  -48.5680 C   0  0  0  0  0  0  0  0  0  0  0  0
   67.6270  150.0030  -48.1650 C   0  0  0  0  0  0  0  0  0  0  0  0
   67.7820  149.1030  -47.1080 C   0  0  0  0  0  0  0  0  0  0  0  0
   69.0180  148.9760  -46.4700 C   0  0  0  0  0  0  0  0  0  0  0  0
   70.0970  149.7650  -46.8770 C   0  0  0  0  0  0  0  0  0  0  0  0
   69.9440  150.6850  -47.9200 C   0  0  0  0  0  0  0  0  0  0  0  0
   69.2950  151.6600  -50.6960 O   0  0  0  0  0  0  0  0  0  0  0  0
   66.5490  152.8710  -48.2010 S   0  0  0  0  0  0  0  0  0  0  0  0
   65.4750  154.0640  -49.0800 C   0  0  0  0  0  0  0  0  0  0  0  0
   64.3650  154.6740  -48.5410 N   0  0  0  0  0  0  0  0  0  0  0  0
   63.7110  154.3900  -47.3000 C   0  0  0  0  0  0  0  0  0  0  0  0
   62.7860  155.3700  -46.8680 C   0  0  0  0  0  0  0  0  0  0  0  0
   62.1480  155.1690  -45.6490 C   0  0  0  0  0  0  0  0  0  0  0  0
   62.3700  154.0490  -44.8400 C   0  0  0  0  0  0  0  0  0  0  0  0
   63.2640  153.0860  -45.3070 C   0  0  0  0  0  0  0  0  0  0  0  0
   63.9180  153.2330  -46.5380 C   0  0  0  0  0  0  0  0  0  0  0  0
   61.2850  156.0920  -45.2260 F   0  0  0  0  0  0  0  0  0  0  0  0
   67.0950  154.1520  -52.6710 H   0  0  0  0  0  0  0  0  0  0  0  0
   68.3210  152.9810  -52.1550 H   0  0  0  0  0  0  0  0  0  0  0  0
   66.6590  150.0610  -48.6640 H   0  0  0  0  0  0  0  0  0  0  0  0
   66.9360  148.5060  -46.7660 H   0  0  0  0  0  0  0  0  0  0  0  0
   69.1330  148.2570  -45.6540 H   0  0  0  0  0  0  0  0  0  0  0  0
   71.0480  149.6590  -46.3590 H   0  0  0  0  0  0  0  0  0  0  0  0
   70.7810  151.3170  -48.2220 H   0  0  0  0  0  0  0  0  0  0  0  0
   63.7970  155.2850  -49.1850 H   0  0  0  0  0  0  0  0  0  0  0  0
   62.5770  156.2510  -47.4790 H   0  0  0  0  0  0  0  0  0  0  0  0
   61.8750  153.9260  -43.8740 H   0  0  0  0  0  0  0  0  0  0  0  0
   63.4670  152.1980  -44.7010 H   0  0  0  0  0  0  0  0  0  0  0  0
   64.5550  152.4120  -46.8690 H   0  0  0  0  0  0  0  0  0  0  0  0
  1 14  2  0  0  0  0
  2  1  1  0  0  0  0
  2  4  2  0  0  0  0
  3  2  1  0  0  0  0
  3 23  1  0  0  0  0
  3 24  1  0  0  0  0
  4 13  1  0  0  0  0
  5  4  1  0  0  0  0
  5  6  1  0  0  0  0
  6 11  2  0  0  0  0
  6  7  1  0  0  0  0
  7  8  2  0  0  0  0
  7 25  1  0  0  0  0
  8  9  1  0  0  0  0
  8 26  1  0  0  0  0
  9 27  1  0  0  0  0
 10  9  2  0  0  0  0
 10 28  1  0  0  0  0
 11 10  1  0  0  0  0
 11 29  1  0  0  0  0
 12  5  2  0  0  0  0
 14 15  1  0  0  0  0
 14 13  1  0  0  0  0
 15 16  1  0  0  0  0
 15 30  1  0  0  0  0
 16 17  2  0  0  0  0
 16 21  1  0  0  0  0
 17 18  1  0  0  0  0
 17 31  1  0  0  0  0
 18 22  1  0  0  0  0
 18 19  2  0  0  0  0
 19 32  1  0  0  0  0
 20 19  1  0  0  0  0
 20 33  1  0  0  0  0
 21 20  2  0  0  0  0
 21 34  1  0  0  0  0
M  END
>  <lm5_entropy_jk>
20.581653483104166

>  <number_of_rotatable_bonds>
4

>  <IC50_NM>
5700

>  <charge>
0

$$$$
