5NXV
 OpenBabel11252210453D

 35 36  0  0  0  0  0  0  0  0999 V2000
   -1.0950    9.4650   13.4390 C   0  0  0  0  0  0  0  0  0  0  0  0
   -3.0770    9.8100   10.2860 N   0  0  0  0  0  0  0  0  0  0  0  0
   -1.6130    6.3050   12.9120 O   0  0  0  0  0  0  0  0  0  0  0  0
   -5.9760    2.7320   16.7580 S   0  0  0  0  0  0  0  0  0  0  0  0
   -1.8860    9.8700   12.2290 C   0  0  0  0  0  0  0  0  0  0  0  0
   -2.4610    9.0640   11.2590 N   0  0  0  0  0  0  0  0  0  0  0  0
   -4.9570    2.7640   17.7700 O   0  0  0  0  0  0  0  0  0  0  0  0
   -2.1580   11.1450   11.8440 C   0  0  0  0  0  0  0  0  0  0  0  0
   -3.8630    6.5450   12.6860 N   0  0  0  0  0  0  0  0  0  0  0  0
   -7.3150    3.1610   17.0620 O   0  0  0  0  0  0  0  0  0  0  0  0
   -2.9110   11.0900   10.6260 C   0  0  0  0  0  0  0  0  0  0  0  0
   -5.8880    1.3650   16.0530 N   0  5  0  0  0  0  0  0  0  0  0  0
   -3.2960   13.3530   10.2520 O   0  5  0  0  0  0  0  0  0  0  0  0
   -2.3760    7.6020   11.0820 C   0  0  0  0  0  0  0  0  0  0  0  0
   -3.4250   12.2010    9.8260 N   0  3  0  0  0  0  0  0  0  0  0  0
   -3.9730   11.9370    8.7470 O   0  0  0  0  0  0  0  0  0  0  0  0
   -2.5640    6.7720   12.3180 C   0  0  0  0  0  0  0  0  0  0  0  0
   -4.3480    5.6240   13.6340 C   0  0  0  0  0  0  0  0  0  0  0  0
   -5.5380    5.8970   14.3050 C   0  0  0  0  0  0  0  0  0  0  0  0
   -6.0620    4.9920   15.2420 C   0  0  0  0  0  0  0  0  0  0  0  0
   -5.3780    3.7880   15.4930 C   0  0  0  0  0  0  0  0  0  0  0  0
   -4.1740    3.5090   14.8310 C   0  0  0  0  0  0  0  0  0  0  0  0
   -3.6950    4.4170   13.8810 C   0  0  0  0  0  0  0  0  0  0  0  0
   -1.6800   12.6080   12.6710 Cl  0  0  0  0  0  0  0  0  0  0  0  0
   -4.5630    7.0670   12.1840 H   0  0  0  0  0  0  0  0  0  0  0  0
   -6.0490    6.8370   14.1260 H   0  0  0  0  0  0  0  0  0  0  0  0
   -6.9740    5.2510   15.7900 H   0  0  0  0  0  0  0  0  0  0  0  0
   -3.6050    2.6020   15.0440 H   0  0  0  0  0  0  0  0  0  0  0  0
   -2.7840    4.1830   13.3430 H   0  0  0  0  0  0  0  0  0  0  0  0
   -0.4990   10.2980   13.8340 H   0  0  0  0  0  0  0  0  0  0  0  0
   -0.3960    8.6560   13.1990 H   0  0  0  0  0  0  0  0  0  0  0  0
   -1.7540    9.1160   14.2430 H   0  0  0  0  0  0  0  0  0  0  0  0
   -5.0730    1.3260   16.7220 H   0  0  0  0  0  0  0  0  0  0  0  0
   -1.3860    7.3450   10.6980 H   0  0  0  0  0  0  0  0  0  0  0  0
   -3.1020    7.2640   10.3390 H   0  0  0  0  0  0  0  0  0  0  0  0
  1  5  1  0  0  0  0
  2  6  1  0  0  0  0
  2 11  2  0  0  0  0
  3 17  2  0  0  0  0
  4  7  2  0  0  0  0
  4 10  2  0  0  0  0
  4 12  1  0  0  0  0
  4 21  1  0  0  0  0
  5  6  1  0  0  0  0
  5  8  2  0  0  0  0
  6 14  1  0  0  0  0
  8 11  1  0  0  0  0
  8 24  1  0  0  0  0
  9 17  1  0  0  0  0
  9 18  1  0  0  0  0
 11 15  1  0  0  0  0
 13 15  1  0  0  0  0
 14 17  1  0  0  0  0
 15 16  2  0  0  0  0
 18 19  2  0  0  0  0
 18 23  1  0  0  0  0
 19 20  1  0  0  0  0
 20 21  2  0  0  0  0
 21 22  1  0  0  0  0
 22 23  2  0  0  0  0
 25  9  1  0  0  0  0
 26 19  1  0  0  0  0
 27 20  1  0  0  0  0
 28 22  1  0  0  0  0
 29 23  1  0  0  0  0
 30  1  1  0  0  0  0
 31  1  1  0  0  0  0
 32  1  1  0  0  0  0
 33 12  1  0  0  0  0
 34 14  1  0  0  0  0
 35 14  1  0  0  0  0
M  CHG  3  12  -1  13  -1  15   1
M  END
>  <deltaG_kcalmol>
-11.5

>  <number_of_rotatable_bonds>
6

>  <charge>
-1

>  <lm5_entropy_jk>
29.078390290150285

$$$$
