5NXV
 OpenBabel11252210453D

 35 36  0  0  0  0  0  0  0  0999 V2000
   -1.0260    9.7970   13.6390 C   0  0  0  0  0  0  0  0  0  0  0  0
   -3.0510    9.8600   10.4970 N   0  0  0  0  0  0  0  0  0  0  0  0
   -1.4080    6.5720   13.2440 O   0  0  0  0  0  0  0  0  0  0  0  0
   -5.7340    2.7100   16.6770 S   0  0  0  0  0  0  0  0  0  0  0  0
   -1.8620   10.0950   12.4280 C   0  0  0  0  0  0  0  0  0  0  0  0
   -2.3180    9.2160   11.4620 N   0  0  0  0  0  0  0  0  0  0  0  0
   -4.7090    2.7800   17.6800 O   0  0  0  0  0  0  0  0  0  0  0  0
   -2.3210   11.3170   12.0480 C   0  0  0  0  0  0  0  0  0  0  0  0
   -3.6030    6.5510   12.6600 N   0  0  0  0  0  0  0  0  0  0  0  0
   -7.0740    3.1420   16.9780 O   0  0  0  0  0  0  0  0  0  0  0  0
   -3.0740   11.1500   10.8390 C   0  0  0  0  0  0  0  0  0  0  0  0
   -5.6640    1.3340   15.9810 N   0  5  0  0  0  0  0  0  0  0  0  0
   -3.7560   13.3380   10.4500 O   0  5  0  0  0  0  0  0  0  0  0  0
   -2.0150    7.7830   11.3000 C   0  0  0  0  0  0  0  0  0  0  0  0
   -3.7720   12.1680   10.0550 N   0  3  0  0  0  0  0  0  0  0  0  0
   -4.3510   11.8120    9.0210 O   0  0  0  0  0  0  0  0  0  0  0  0
   -2.2980    6.9260   12.4970 C   0  0  0  0  0  0  0  0  0  0  0  0
   -4.1130    5.6070   13.5650 C   0  0  0  0  0  0  0  0  0  0  0  0
   -5.3600    5.8190   14.1460 C   0  0  0  0  0  0  0  0  0  0  0  0
   -5.8860    4.9060   15.0720 C   0  0  0  0  0  0  0  0  0  0  0  0
   -5.1520    3.7470   15.3880 C   0  0  0  0  0  0  0  0  0  0  0  0
   -3.8980    3.5200   14.8020 C   0  0  0  0  0  0  0  0  0  0  0  0
   -3.4060    4.4460   13.8750 C   0  0  0  0  0  0  0  0  0  0  0  0
   -2.0810   12.8280   12.8900 Cl  0  0  0  0  0  0  0  0  0  0  0  0
   -4.2750    6.9830   12.0450 H   0  0  0  0  0  0  0  0  0  0  0  0
   -5.9060    6.7280   13.9150 H   0  0  0  0  0  0  0  0  0  0  0  0
   -6.8340    5.1300   15.5710 H   0  0  0  0  0  0  0  0  0  0  0  0
   -3.2940    2.6520   15.0710 H   0  0  0  0  0  0  0  0  0  0  0  0
   -2.4420    4.2710   13.4100 H   0  0  0  0  0  0  0  0  0  0  0  0
   -0.6360   10.7090   14.1080 H   0  0  0  0  0  0  0  0  0  0  0  0
   -0.1660    9.1740   13.3720 H   0  0  0  0  0  0  0  0  0  0  0  0
   -1.6110    9.2580   14.3950 H   0  0  0  0  0  0  0  0  0  0  0  0
   -4.8500    1.2460   16.6470 H   0  0  0  0  0  0  0  0  0  0  0  0
   -0.9510    7.6590   11.0880 H   0  0  0  0  0  0  0  0  0  0  0  0
   -2.5630    7.3670   10.4510 H   0  0  0  0  0  0  0  0  0  0  0  0
  1  5  1  0  0  0  0
  2  6  1  0  0  0  0
  2 11  2  0  0  0  0
  3 17  2  0  0  0  0
  4  7  2  0  0  0  0
  4 10  2  0  0  0  0
  4 12  1  0  0  0  0
  4 21  1  0  0  0  0
  5  6  1  0  0  0  0
  5  8  2  0  0  0  0
  6 14  1  0  0  0  0
  8 11  1  0  0  0  0
  8 24  1  0  0  0  0
  9 17  1  0  0  0  0
  9 18  1  0  0  0  0
 11 15  1  0  0  0  0
 13 15  1  0  0  0  0
 14 17  1  0  0  0  0
 15 16  2  0  0  0  0
 18 19  2  0  0  0  0
 18 23  1  0  0  0  0
 19 20  1  0  0  0  0
 20 21  2  0  0  0  0
 21 22  1  0  0  0  0
 22 23  2  0  0  0  0
 25  9  1  0  0  0  0
 26 19  1  0  0  0  0
 27 20  1  0  0  0  0
 28 22  1  0  0  0  0
 29 23  1  0  0  0  0
 30  1  1  0  0  0  0
 31  1  1  0  0  0  0
 32  1  1  0  0  0  0
 33 12  1  0  0  0  0
 34 14  1  0  0  0  0
 35 14  1  0  0  0  0
M  CHG  3  12  -1  13  -1  15   1
M  END
>  <deltaG_kcalmol>
-11.5

>  <number_of_rotatable_bonds>
6

>  <charge>
-1

>  <lm5_entropy_jk>
29.078390290150285

$$$$
