05-14.pdb
 OpenBabel11252210453D

 86 88  0  0  1  0  0  0  0  0999 V2000
    8.3460   18.4170    8.9300 N   0  0  0  0  0  0  0  0  0  0  0  0
    7.2230   17.9550    9.7700 C   0  0  2  0  0  0  0  0  0  0  0  0
   12.8720   15.8590    7.9460 C   0  0  0  0  0  0  0  0  0  0  0  0
   11.5550   16.2900    7.2480 C   0  0  1  0  0  0  0  0  0  0  0  0
   11.2690   17.8070    7.5280 C   0  0  2  0  0  0  0  0  0  0  0  0
    9.8960   18.2810    7.0050 C   0  0  0  0  0  0  0  0  0  0  0  0
    8.7520   17.6840    7.7990 C   0  0  0  0  0  0  0  0  0  0  0  0
   10.9980   14.9170    5.1980 C   0  0  0  0  0  0  0  0  0  0  0  0
   13.2380   14.4140    7.7260 C   0  0  0  0  0  0  0  0  0  0  0  0
   13.8960   13.9980    6.5880 C   0  0  0  0  0  0  0  0  0  0  0  0
   14.3670   12.6580    6.4420 C   0  0  0  0  0  0  0  0  0  0  0  0
   14.1690   11.7380    7.5030 C   0  0  0  0  0  0  0  0  0  0  0  0
   13.3940   12.1560    8.6310 C   0  0  0  0  0  0  0  0  0  0  0  0
   12.9480   13.4480    8.7410 C   0  0  0  0  0  0  0  0  0  0  0  0
   11.2130   14.8470    3.6930 C   0  0  0  0  0  0  0  0  0  0  0  0
    3.4320   17.6130    8.9610 C   0  0  0  0  0  0  0  0  0  0  0  0
    9.8700   14.9800    2.9570 C   0  0  0  0  0  0  0  0  0  0  0  0
    9.1090   16.2590    3.3470 C   0  0  0  0  0  0  0  0  0  0  0  0
    7.6620   16.2500    2.8310 C   0  0  0  0  0  0  0  0  0  0  0  0
    6.6740   16.8770    3.8340 C   0  0  0  0  0  0  0  0  0  0  0  0
    5.2450   16.3860    3.5600 C   0  0  0  0  0  0  0  0  0  0  0  0
    2.9840   16.3850    8.1410 C   0  0  0  0  0  0  0  0  0  0  0  0
    5.8670   18.3110    9.1120 C   0  0  0  0  0  0  0  0  0  0  0  0
    5.7040   19.2710    8.3750 O   0  0  0  0  0  0  0  0  0  0  0  0
   11.5920   16.0510    5.7960 N   0  0  0  0  0  0  0  0  0  0  0  0
    4.8160   17.4730    9.4790 N   0  0  0  0  0  0  0  0  0  0  0  0
    7.3450   18.5240   11.2160 C   0  0  0  0  0  0  0  0  0  0  0  0
    2.9080   16.6400    6.6280 C   0  0  0  0  0  0  0  0  0  0  0  0
    4.2780   16.5970    5.9330 C   0  0  0  0  0  0  0  0  0  0  0  0
    4.1770   17.0280    4.4590 C   0  0  0  0  0  0  0  0  0  0  0  0
   15.0690   12.2320    5.2680 C   0  0  0  0  0  0  0  0  0  0  0  0
   15.5850   10.9630    5.1880 C   0  0  0  0  0  0  0  0  0  0  0  0
   15.4530   10.0640    6.2860 C   0  0  0  0  0  0  0  0  0  0  0  0
   14.7740   10.4460    7.4160 C   0  0  0  0  0  0  0  0  0  0  0  0
    8.2350   16.6120    7.5340 O   0  0  0  0  0  0  0  0  0  0  0  0
   10.3290   14.1260    5.8420 O   0  0  0  0  0  0  0  0  0  0  0  0
   12.2220   18.6150    6.8050 O   0  0  0  0  0  0  0  0  0  0  0  0
    6.5070   17.6970   12.2010 C   0  0  0  0  0  0  0  0  0  0  0  0
    6.9900   20.0100   11.3020 C   0  0  0  0  0  0  0  0  0  0  0  0
    7.5850   20.5980   10.5720 H   0  0  0  0  0  0  0  0  0  0  0  0
    8.6450   19.3990    9.0490 H   0  0  0  0  0  0  0  0  0  0  0  0
    7.2970   16.8380    9.8600 H   0  0  0  0  0  0  0  0  0  0  0  0
   12.7630   16.0670    9.0400 H   0  0  0  0  0  0  0  0  0  0  0  0
   10.7100   15.6990    7.6890 H   0  0  0  0  0  0  0  0  0  0  0  0
   11.3730   18.0170    8.6190 H   0  0  0  0  0  0  0  0  0  0  0  0
    9.7880   17.9750    5.9300 H   0  0  0  0  0  0  0  0  0  0  0  0
   14.0990   14.6810    5.7700 H   0  0  0  0  0  0  0  0  0  0  0  0
   13.1670   11.4270    9.4090 H   0  0  0  0  0  0  0  0  0  0  0  0
   12.3890   13.7680    9.6220 H   0  0  0  0  0  0  0  0  0  0  0  0
   11.6780   13.8640    3.4360 H   0  0  0  0  0  0  0  0  0  0  0  0
    3.3550   18.5480    8.3470 H   0  0  0  0  0  0  0  0  0  0  0  0
    9.2520   14.0840    3.1890 H   0  0  0  0  0  0  0  0  0  0  0  0
    9.6510   17.1410    2.9320 H   0  0  0  0  0  0  0  0  0  0  0  0
    7.3470   15.2010    2.6320 H   0  0  0  0  0  0  0  0  0  0  0  0
    6.7140   17.9850    3.7390 H   0  0  0  0  0  0  0  0  0  0  0  0
    5.2060   15.2790    3.6810 H   0  0  0  0  0  0  0  0  0  0  0  0
    1.9630   16.0920    8.4970 H   0  0  0  0  0  0  0  0  0  0  0  0
   12.3700   16.5310    5.3150 H   0  0  0  0  0  0  0  0  0  0  0  0
    5.0100   16.5670    9.9410 H   0  0  0  0  0  0  0  0  0  0  0  0
    8.4140   18.3780   11.5120 H   0  0  0  0  0  0  0  0  0  0  0  0
    2.4280   17.6310    6.4460 H   0  0  0  0  0  0  0  0  0  0  0  0
    4.6790   15.5600    5.9950 H   0  0  0  0  0  0  0  0  0  0  0  0
    3.1800   16.7340    4.0530 H   0  0  0  0  0  0  0  0  0  0  0  0
   15.1920   12.9380    4.4400 H   0  0  0  0  0  0  0  0  0  0  0  0
   16.1170   10.6270    4.2940 H   0  0  0  0  0  0  0  0  0  0  0  0
   15.9130    9.0730    6.2170 H   0  0  0  0  0  0  0  0  0  0  0  0
   14.7320    9.7830    8.2810 H   0  0  0  0  0  0  0  0  0  0  0  0
   12.8380   19.0790    7.4810 H   0  0  0  0  0  0  0  0  0  0  0  0
    6.7270   16.6140   12.0860 H   0  0  0  0  0  0  0  0  0  0  0  0
    7.1860   20.3890   12.3300 H   0  0  0  0  0  0  0  0  0  0  0  0
   13.7030   16.5080    7.5720 H   0  0  0  0  0  0  0  0  0  0  0  0
    9.8760   19.3960    7.0420 H   0  0  0  0  0  0  0  0  0  0  0  0
   11.9000   15.6540    3.3410 H   0  0  0  0  0  0  0  0  0  0  0  0
    2.7670   17.7140    9.8630 H   0  0  0  0  0  0  0  0  0  0  0  0
   10.0740   14.9990    1.8600 H   0  0  0  0  0  0  0  0  0  0  0  0
    9.0950   16.3540    4.4580 H   0  0  0  0  0  0  0  0  0  0  0  0
    7.6110   16.8060    1.8670 H   0  0  0  0  0  0  0  0  0  0  0  0
    6.9610   16.5940    4.8720 H   0  0  0  0  0  0  0  0  0  0  0  0
    4.9960   16.6190    2.5000 H   0  0  0  0  0  0  0  0  0  0  0  0
    3.6670   15.5250    8.3460 H   0  0  0  0  0  0  0  0  0  0  0  0
    2.2510   15.8550    6.1770 H   0  0  0  0  0  0  0  0  0  0  0  0
    4.9880   17.2730    6.4600 H   0  0  0  0  0  0  0  0  0  0  0  0
    4.2600   18.1370    4.3950 H   0  0  0  0  0  0  0  0  0  0  0  0
    5.4160   17.8600   12.0470 H   0  0  0  0  0  0  0  0  0  0  0  0
    5.9090   20.1660   11.0850 H   0  0  0  0  0  0  0  0  0  0  0  0
    6.7500   18.0030   13.2440 H   0  0  0  0  0  0  0  0  0  0  0  0
  1 41  1  0  0  0  0
  1  2  1  0  0  0  0
  2 42  1  1  0  0  0
  2 27  1  0  0  0  0
  3 43  1  0  0  0  0
  4  5  1  0  0  0  0
  4 44  1  1  0  0  0
  4  3  1  0  0  0  0
  5 45  1  1  0  0  0
  6  5  1  0  0  0  0
  6  7  1  0  0  0  0
  7  1  1  0  0  0  0
  8 25  1  0  0  0  0
  8 36  2  0  0  0  0
  9  3  1  0  0  0  0
  9 14  2  0  0  0  0
 10 11  2  0  0  0  0
 10  9  1  0  0  0  0
 11 12  1  0  0  0  0
 12 34  1  0  0  0  0
 12 13  2  0  0  0  0
 13 48  1  0  0  0  0
 14 13  1  0  0  0  0
 14 49  1  0  0  0  0
 15  8  1  0  0  0  0
 16 26  1  0  0  0  0
 16 74  1  0  0  0  0
 17 18  1  0  0  0  0
 17 15  1  0  0  0  0
 18 53  1  0  0  0  0
 18 76  1  0  0  0  0
 19 18  1  0  0  0  0
 19 20  1  0  0  0  0
 20 78  1  0  0  0  0
 21 20  1  0  0  0  0
 21 30  1  0  0  0  0
 22 57  1  0  0  0  0
 22 80  1  0  0  0  0
 22 16  1  0  0  0  0
 23 26  1  0  0  0  0
 23  2  1  0  0  0  0
 24 23  2  0  0  0  0
 25  4  1  0  0  0  0
 26 59  1  0  0  0  0
 27 60  1  0  0  0  0
 27 38  1  0  0  0  0
 28 22  1  0  0  0  0
 29 28  1  0  0  0  0
 29 82  1  0  0  0  0
 30 83  1  0  0  0  0
 30 29  1  0  0  0  0
 31 32  2  0  0  0  0
 31 11  1  0  0  0  0
 32 33  1  0  0  0  0
 33 66  1  0  0  0  0
 33 34  2  0  0  0  0
 34 67  1  0  0  0  0
 35  7  2  0  0  0  0
 37  5  1  0  0  0  0
 37 68  1  0  0  0  0
 38 69  1  0  0  0  0
 38 86  1  0  0  0  0
 39 27  1  0  0  0  0
 39 70  1  0  0  0  0
 40 39  1  0  0  0  0
 46  6  1  0  0  0  0
 47 10  1  0  0  0  0
 50 15  1  0  0  0  0
 51 16  1  0  0  0  0
 52 17  1  0  0  0  0
 54 19  1  0  0  0  0
 55 20  1  0  0  0  0
 56 21  1  0  0  0  0
 58 25  1  0  0  0  0
 61 28  1  0  0  0  0
 62 29  1  0  0  0  0
 63 30  1  0  0  0  0
 64 31  1  0  0  0  0
 65 32  1  0  0  0  0
 71  3  1  0  0  0  0
 72  6  1  0  0  0  0
 73 15  1  0  0  0  0
 75 17  1  0  0  0  0
 77 19  1  0  0  0  0
 79 21  1  0  0  0  0
 81 28  1  0  0  0  0
 84 38  1  0  0  0  0
 85 39  1  0  0  0  0
M  END
>  <IC50_NM>
0.6

>  <number_of_rotatable_bonds>
3

>  <charge>
0

>  <lm5_entropy_jk>
30.51387600249522

$$$$
