3f16.pdb
 OpenBabel11252210453D

 33 33  0  0  1  0  0  0  0  0999 V2000
    7.3460   23.9530    4.3020 C   0  0  0  0  0  0  0  0  0  0  0  0
    8.5790   23.8270    1.3680 N   0  0  0  0  0  0  0  0  0  0  0  0
    7.4640   27.8260    4.6370 O   0  0  0  0  0  0  0  0  0  0  0  0
    7.9010   26.5880    4.0000 S   0  0  0  0  0  0  0  0  0  0  0  0
    6.5430   22.8870    4.6790 C   0  0  0  0  0  0  0  0  0  0  0  0
    7.6470   26.8030    2.3060 N   0  0  0  0  0  0  0  0  0  0  0  0
    9.3050   26.2180    4.2140 O   0  0  0  0  0  0  0  0  0  0  0  0
    6.8750   25.2790    4.4000 C   0  0  0  0  0  0  0  0  0  0  0  0
    6.9330   24.8220    0.1460 O   0  0  0  0  0  0  0  0  0  0  0  0
    5.2580   23.1470    5.2070 C   0  0  0  0  0  0  0  0  0  0  0  0
    7.8050   27.4770   -0.6730 O   0  0  0  0  0  0  0  0  0  0  0  0
    4.7410   24.4520    5.2350 C   0  0  0  0  0  0  0  0  0  0  0  0
    4.6370   22.0290    5.6780 O   0  0  0  0  0  0  0  0  0  0  0  0
    5.5560   25.5040    4.8190 C   0  0  0  0  0  0  0  0  0  0  0  0
    8.0670   22.6500    0.7790 O   0  0  0  0  0  0  0  0  0  0  0  0
    8.9430   27.2580    0.1720 C   0  0  0  0  0  0  0  0  0  0  0  0
    7.9460   24.9800    0.7940 C   0  0  0  0  0  0  0  0  0  0  0  0
    8.6070   26.2770    1.3230 C   0  0  2  0  0  0  0  0  0  0  0  0
    3.2810   22.1250    6.1940 C   0  0  0  0  0  0  0  0  0  0  0  0
    8.3560   23.7400    3.9210 H   0  0  0  0  0  0  0  0  0  0  0  0
    9.6210   23.7510    1.4220 H   0  0  0  0  0  0  0  0  0  0  0  0
    6.8890   21.8590    4.5500 H   0  0  0  0  0  0  0  0  0  0  0  0
    7.1600   27.6640    2.0030 H   0  0  0  0  0  0  0  0  0  0  0  0
    7.4170   28.3730   -0.4590 H   0  0  0  0  0  0  0  0  0  0  0  0
    3.7190   24.6520    5.5560 H   0  0  0  0  0  0  0  0  0  0  0  0
    5.1360   26.5160    4.8340 H   0  0  0  0  0  0  0  0  0  0  0  0
    8.3000   21.9060    1.5400 H   0  0  0  0  0  0  0  0  0  0  0  0
    9.3190   28.2240    0.5890 H   0  0  0  0  0  0  0  0  0  0  0  0
    9.7170   26.8070   -0.5030 H   0  0  0  0  0  0  0  0  0  0  0  0
    9.5970   26.0380    1.8290 H   0  0  0  0  0  0  0  0  0  0  0  0
    3.0720   21.0530    6.4290 H   0  0  0  0  0  0  0  0  0  0  0  0
    2.5990   22.5090    5.4060 H   0  0  0  0  0  0  0  0  0  0  0  0
    3.2700   22.7550    7.1070 H   0  0  0  0  0  0  0  0  0  0  0  0
  1  8  2  0  0  0  0
  1  5  1  0  0  0  0
  1 20  1  0  0  0  0
  2 15  1  0  0  0  0
  2 17  1  0  0  0  0
  2 21  1  0  0  0  0
  3  4  2  0  0  0  0
  4  6  1  0  0  0  0
  4  7  2  0  0  0  0
  4  8  1  0  0  0  0
  5 10  2  0  0  0  0
  5 22  1  0  0  0  0
  6 18  1  0  0  0  0
  6 23  1  0  0  0  0
  8 14  1  0  0  0  0
  9 17  2  0  0  0  0
 10 12  1  0  0  0  0
 10 13  1  0  0  0  0
 11 16  1  0  0  0  0
 11 24  1  0  0  0  0
 12 14  2  0  0  0  0
 12 25  1  0  0  0  0
 13 19  1  0  0  0  0
 14 26  1  0  0  0  0
 15 27  1  0  0  0  0
 16 18  1  0  0  0  0
 16 28  1  0  0  0  0
 16 29  1  0  0  0  0
 17 18  1  0  0  0  0
 18 30  1  1  0  0  0
 19 31  1  0  0  0  0
 19 32  1  0  0  0  0
 19 33  1  0  0  0  0
M  END
>  <COMPND>
3f16.pdb

>  <AUTHOR>
GENERATED BY OPEN BABEL 2.3.1

>  <MASTER>
0    0    0    0    0    0    0    0   33    0   33    0

>  <lm5_entropy_jk>
30.537322729053685

>  <number_of_rotatable_bonds>
7

>  <deltaG_kcalmol>
-11.24

>  <charge>
0

$$$$
