5NXW
 OpenBabel11252210453D

 31 32  0  0  0  0  0  0  0  0999 V2000
   -3.9160    6.8740   13.2170 N   0  0  0  0  0  0  0  0  0  0  0  0
   -3.6840    4.6420   14.1980 C   0  0  0  0  0  0  0  0  0  0  0  0
   -2.3960    5.9350   11.8040 O   0  0  0  0  0  0  0  0  0  0  0  0
   -4.1640    3.6360   15.0450 C   0  0  0  0  0  0  0  0  0  0  0  0
   -1.3930   10.9240   11.3840 N   0  0  0  0  0  0  0  0  0  0  0  0
   -5.0160    2.6950   17.8670 O   0  0  0  0  0  0  0  0  0  0  0  0
   -0.6560   12.0590   13.6150 S   0  0  0  0  0  0  0  0  0  0  0  0
   -5.4260    3.7970   15.6390 C   0  0  0  0  0  0  0  0  0  0  0  0
   -0.8200   12.1260   11.0170 N   0  0  0  0  0  0  0  0  0  0  0  0
   -7.3740    3.0300   17.1230 O   0  0  0  0  0  0  0  0  0  0  0  0
   -6.0130    2.6680   16.8360 S   0  0  0  0  0  0  0  0  0  0  0  0
   -6.1750    4.9650   15.4180 C   0  0  0  0  0  0  0  0  0  0  0  0
    0.2360   13.9980   11.9010 N   0  0  0  0  0  0  0  0  0  0  0  0
   -5.6620    5.9540   14.5710 C   0  0  0  0  0  0  0  0  0  0  0  0
   -5.8700    1.3400   16.0710 N   0  5  0  0  0  0  0  0  0  0  0  0
   -4.4230    5.7990   13.9580 C   0  0  0  0  0  0  0  0  0  0  0  0
   -2.9240    6.9140   12.2900 C   0  0  0  0  0  0  0  0  0  0  0  0
   -2.5180    8.2910   11.9120 C   0  0  0  0  0  0  0  0  0  0  0  0
   -1.3680   10.7640   12.6960 C   0  0  0  0  0  0  0  0  0  0  0  0
   -0.3910   12.8060   12.0650 C   0  0  0  0  0  0  0  0  0  0  0  0
   -1.9740    9.2590   13.3900 S   0  0  0  0  0  0  0  0  0  0  0  0
   -2.7010    4.5310   13.7560 H   0  0  0  0  0  0  0  0  0  0  0  0
   -4.2520    7.7810   13.4980 H   0  0  0  0  0  0  0  0  0  0  0  0
    0.7580   14.3730   12.6810 H   0  0  0  0  0  0  0  0  0  0  0  0
    0.5230   14.2550   10.9670 H   0  0  0  0  0  0  0  0  0  0  0  0
   -5.0460    1.2980   16.7290 H   0  0  0  0  0  0  0  0  0  0  0  0
   -3.5400    2.7640   15.2510 H   0  0  0  0  0  0  0  0  0  0  0  0
   -7.1270    5.1360   15.9320 H   0  0  0  0  0  0  0  0  0  0  0  0
   -6.2250    6.8680   14.4130 H   0  0  0  0  0  0  0  0  0  0  0  0
   -1.6950    8.1870   11.1990 H   0  0  0  0  0  0  0  0  0  0  0  0
   -3.3600    8.7670   11.4040 H   0  0  0  0  0  0  0  0  0  0  0  0
  1 16  1  0  0  0  0
  1 17  1  0  0  0  0
  2  4  2  0  0  0  0
  2 16  1  0  0  0  0
  3 17  2  0  0  0  0
  4  8  1  0  0  0  0
  5  9  1  0  0  0  0
  5 19  2  0  0  0  0
  6 11  2  0  0  0  0
  7 19  1  0  0  0  0
  7 20  1  0  0  0  0
  8 11  1  0  0  0  0
  8 12  2  0  0  0  0
  9 20  2  0  0  0  0
 10 11  2  0  0  0  0
 11 15  1  0  0  0  0
 12 14  1  0  0  0  0
 13 20  1  0  0  0  0
 14 16  2  0  0  0  0
 17 18  1  0  0  0  0
 18 21  1  0  0  0  0
 19 21  1  0  0  0  0
 22  2  1  0  0  0  0
 23  1  1  0  0  0  0
 24 13  1  0  0  0  0
 25 13  1  0  0  0  0
 26 15  1  0  0  0  0
 27  4  1  0  0  0  0
 28 12  1  0  0  0  0
 29 14  1  0  0  0  0
 30 18  1  0  0  0  0
 31 18  1  0  0  0  0
M  CHG  1  15  -1
M  END
>  <deltaG_kcalmol>
-9.9

>  <number_of_rotatable_bonds>
6

>  <charge>
-1

>  <lm5_entropy_jk>
25.12029370685346

$$$$
