3qtq.pdb
 OpenBabel11252210453D

 30 31  0  0  1  0  0  0  0  0999 V2000
   65.8020  154.5410  -50.5920 N   0  0  0  0  0  0  0  0  0  0  0  0
   67.3190  153.5340  -52.1600 N   0  0  0  0  0  0  0  0  0  0  0  0
   70.6680  150.0330  -47.5850 N   0  0  0  0  0  0  0  0  0  0  0  0
   64.5950  155.2760  -48.6700 N   0  0  0  0  0  0  0  0  0  0  0  0
   66.8720  153.6540  -50.8870 C   0  0  0  0  0  0  0  0  0  0  0  0
   67.4040  152.9010  -49.8080 C   0  0  0  0  0  0  0  0  0  0  0  0
   68.4480  151.9420  -49.9410 C   0  0  0  0  0  0  0  0  0  0  0  0
   68.8320  151.0650  -48.7910 C   0  0  0  0  0  0  0  0  0  0  0  0
   70.2050  150.9340  -48.4840 C   0  0  0  0  0  0  0  0  0  0  0  0
   69.7600  149.2460  -46.9390 C   0  0  0  0  0  0  0  0  0  0  0  0
   68.3800  149.3580  -47.1560 C   0  0  0  0  0  0  0  0  0  0  0  0
   67.9090  150.2770  -48.0990 C   0  0  0  0  0  0  0  0  0  0  0  0
   65.5050  154.4460  -49.2750 C   0  0  0  0  0  0  0  0  0  0  0  0
   64.1340  155.0520  -47.2790 C   0  0  0  0  0  0  0  0  0  0  0  0
   63.0150  154.0490  -47.1560 C   0  0  0  0  0  0  0  0  0  0  0  0
   62.7340  153.4690  -45.9930 C   0  0  0  0  0  0  0  0  0  0  0  0
   69.0600  151.7870  -51.0010 O   0  0  0  0  0  0  0  0  0  0  0  0
   66.5310  153.2230  -48.3540 S   0  0  0  0  0  0  0  0  0  0  0  0
   66.9600  154.1470  -52.9130 H   0  0  0  0  0  0  0  0  0  0  0  0
   68.1340  152.9330  -52.3640 H   0  0  0  0  0  0  0  0  0  0  0  0
   70.9510  151.5760  -48.9810 H   0  0  0  0  0  0  0  0  0  0  0  0
   70.1500  148.5050  -46.2250 H   0  0  0  0  0  0  0  0  0  0  0  0
   67.6820  148.7260  -46.5980 H   0  0  0  0  0  0  0  0  0  0  0  0
   66.8320  150.3510  -48.2800 H   0  0  0  0  0  0  0  0  0  0  0  0
   63.8470  155.6870  -49.2750 H   0  0  0  0  0  0  0  0  0  0  0  0
   63.7450  156.0490  -46.9150 H   0  0  0  0  0  0  0  0  0  0  0  0
   64.9990  154.7490  -46.6400 H   0  0  0  0  0  0  0  0  0  0  0  0
   61.9140  152.7700  -45.8670 H   0  0  0  0  0  0  0  0  0  0  0  0
   63.3060  153.6560  -45.0820 H   0  0  0  0  0  0  0  0  0  0  0  0
   62.4440  153.8630  -48.0670 H   0  0  0  0  0  0  0  0  0  0  0  0
  1  5  1  0  0  0  0
  1 13  2  0  0  0  0
  2  5  1  0  0  0  0
  2 19  1  0  0  0  0
  2 20  1  0  0  0  0
  3  9  2  0  0  0  0
  3 10  1  0  0  0  0
  4 13  1  0  0  0  0
  4 14  1  0  0  0  0
  4 25  1  0  0  0  0
  5  6  2  0  0  0  0
  6 18  1  0  0  0  0
  7  6  1  0  0  0  0
  7  8  1  0  0  0  0
  7 17  2  0  0  0  0
  8  9  1  0  0  0  0
  8 12  2  0  0  0  0
  9 21  1  0  0  0  0
 10 11  2  0  0  0  0
 10 22  1  0  0  0  0
 11 12  1  0  0  0  0
 11 23  1  0  0  0  0
 12 24  1  0  0  0  0
 13 18  1  0  0  0  0
 14 15  1  0  0  0  0
 14 26  1  0  0  0  0
 14 27  1  0  0  0  0
 15 16  2  0  0  0  0
 15 30  1  0  0  0  0
 16 28  1  0  0  0  0
 16 29  1  0  0  0  0
M  END
>  <lm5_entropy_jk>
31.50116356131297

>  <number_of_rotatable_bonds>
5

>  <IC50_NM>
3100

>  <charge>
0

$$$$
