4K6Z
 OpenBabel11252210453D

 39 42  0  0  1  0  0  0  0  0999 V2000
  -17.3330   25.3100   -0.8490 N   0  0  0  0  0  0  0  0  0  0  0  0
  -17.1860   27.7050   -1.1430 C   0  0  0  0  0  0  0  0  0  0  0  0
  -15.5620   24.1330   -0.0270 O   0  0  0  0  0  0  0  0  0  0  0  0
  -17.8720   26.5370   -1.2810 C   0  0  0  0  0  0  0  0  0  0  0  0
  -13.8840   28.7990    0.3900 N   0  0  0  0  0  0  0  0  0  0  0  0
  -16.0360   25.2160   -0.2820 C   0  0  0  0  0  0  0  0  0  0  0  0
  -14.1630   26.4180    0.6150 N   0  0  0  0  0  0  0  0  0  0  0  0
  -15.3380   26.5260   -0.0610 C   0  0  0  0  0  0  0  0  0  0  0  0
  -10.5710   26.5120    2.8760 N   0  0  0  0  0  0  0  0  0  0  0  0
  -15.8860   27.7440   -0.5200 C   0  0  0  0  0  0  0  0  0  0  0  0
  -10.3860   27.8670    2.8010 N   0  0  0  0  0  0  0  0  0  0  0  0
  -15.0870   28.9100   -0.2550 C   0  0  0  0  0  0  0  0  0  0  0  0
  -15.4970   30.2480   -0.4690 N   0  0  0  0  0  0  0  0  0  0  0  0
  -13.4670   27.5680    0.8520 C   0  0  0  0  0  0  0  0  0  0  0  0
  -12.9150   29.0770   -2.9600 N   0  0  0  0  0  0  0  0  0  0  0  0
  -12.2450   27.4590    1.6270 C   0  0  0  0  0  0  0  0  0  0  0  0
  -11.6990   26.2380    2.1750 C   0  0  0  0  0  0  0  0  0  0  0  0
  -11.3830   28.4830    2.0520 C   0  0  0  0  0  0  0  0  0  0  0  0
  -15.8980   30.7600   -1.8060 C   0  0  1  0  0  0  0  0  0  0  0  0
  -16.4300   32.2110   -1.6190 C   0  0  0  0  0  0  0  0  0  0  0  0
  -15.3540   33.1850   -2.1500 C   0  0  0  0  0  0  0  0  0  0  0  0
  -14.1150   32.3240   -2.4480 C   0  0  0  0  0  0  0  0  0  0  0  0
  -14.7150   30.9500   -2.8220 C   0  0  1  0  0  0  0  0  0  0  0  0
  -13.7270   29.8940   -2.8720 C   0  0  0  0  0  0  0  0  0  0  0  0
  -17.6520   28.6260   -1.4970 H   0  0  0  0  0  0  0  0  0  0  0  0
  -18.8620   26.5000   -1.7520 H   0  0  0  0  0  0  0  0  0  0  0  0
  -17.9280   24.4560   -0.8800 H   0  0  0  0  0  0  0  0  0  0  0  0
  -14.8980   30.9370    0.0210 H   0  0  0  0  0  0  0  0  0  0  0  0
  -16.6780   30.0990   -2.2570 H   0  0  0  0  0  0  0  0  0  0  0  0
  -16.6440   32.4360   -0.5500 H   0  0  0  0  0  0  0  0  0  0  0  0
  -17.3840   32.3330   -2.1850 H   0  0  0  0  0  0  0  0  0  0  0  0
  -15.7160   33.6790   -3.0830 H   0  0  0  0  0  0  0  0  0  0  0  0
  -15.1310   33.9800   -1.4040 H   0  0  0  0  0  0  0  0  0  0  0  0
  -13.4820   32.2400   -1.5390 H   0  0  0  0  0  0  0  0  0  0  0  0
   -9.6230   28.3340    3.2910 H   0  0  0  0  0  0  0  0  0  0  0  0
  -11.4150   29.5500    1.8880 H   0  0  0  0  0  0  0  0  0  0  0  0
  -12.0930   25.2300    2.0580 H   0  0  0  0  0  0  0  0  0  0  0  0
  -13.5140   32.7450   -3.2740 H   0  0  0  0  0  0  0  0  0  0  0  0
  -15.1780   31.0420   -3.8450 H   0  0  0  0  0  0  0  0  0  0  0  0
  1  6  1  0  0  0  0
  2 10  1  0  0  0  0
  4  2  2  0  0  0  0
  4  1  1  0  0  0  0
  5 14  2  0  0  0  0
  6  8  1  0  0  0  0
  6  3  2  0  0  0  0
  7 14  1  0  0  0  0
  8  7  2  0  0  0  0
 10 12  2  0  0  0  0
 10  8  1  0  0  0  0
 11 35  1  0  0  0  0
 11  9  1  0  0  0  0
 12  5  1  0  0  0  0
 13 28  1  0  0  0  0
 13 12  1  0  0  0  0
 14 16  1  0  0  0  0
 15 24  3  0  0  0  0
 16 17  1  0  0  0  0
 17  9  2  0  0  0  0
 17 37  1  0  0  0  0
 18 16  2  0  0  0  0
 18 11  1  0  0  0  0
 19 29  1  6  0  0  0
 19 20  1  0  0  0  0
 19 13  1  0  0  0  0
 19 23  1  0  0  0  0
 20 30  1  0  0  0  0
 21 33  1  0  0  0  0
 21 20  1  0  0  0  0
 22 34  1  0  0  0  0
 22 21  1  0  0  0  0
 23 39  1  6  0  0  0
 23 22  1  0  0  0  0
 24 23  1  0  0  0  0
 25  2  1  0  0  0  0
 26  4  1  0  0  0  0
 27  1  1  0  0  0  0
 31 20  1  0  0  0  0
 32 21  1  0  0  0  0
 36 18  1  0  0  0  0
 38 22  1  0  0  0  0
M  END
>  <charge>
0

>  <pKi>
8.7

>  <number_of_rotatable_bonds>
3
3

>  <lm5_entropy_jk>
20.793680313784687

$$$$
