JAK1_1
 OpenBabel11252210453D

 42 45  0  0  0  0  0  0  0  0999 V2000
  -14.9610   29.1950   -2.6560 C   0  0  0  0  0  0  0  0  0  0  0  0
  -14.6010   29.8310   -1.3030 C   0  0  0  0  0  0  0  0  0  0  0  0
  -13.3640   30.7530   -1.4910 C   0  0  0  0  0  0  0  0  0  0  0  0
  -13.7250   31.9530   -2.3770 C   0  0  0  0  0  0  0  0  0  0  0  0
  -14.7910   32.7300   -1.6980 N   0  0  0  0  0  0  0  0  0  0  0  0
  -16.0430   31.9740   -1.4580 C   0  0  0  0  0  0  0  0  0  0  0  0
  -15.7650   30.6580   -0.6980 C   0  0  0  0  0  0  0  0  0  0  0  0
  -14.7400   34.4160   -1.7720 S   0  0  0  0  0  0  0  0  0  0  0  0
  -15.0770   34.9810   -0.4840 O   0  0  0  0  0  0  0  0  0  0  0  0
  -13.3480   34.6600   -2.2200 O   0  0  0  0  0  0  0  0  0  0  0  0
  -15.8520   34.9280   -2.9780 C   0  0  0  0  0  0  0  0  0  0  0  0
  -14.2470   28.7490   -0.3050 N   0  0  0  0  0  0  0  0  0  0  0  0
  -13.0150   28.6530    0.4270 C   0  0  0  0  0  0  0  0  0  0  0  0
  -12.8410   27.4480    0.9810 N   0  0  0  0  0  0  0  0  0  0  0  0
  -13.9690   26.6950    0.6350 C   0  0  0  0  0  0  0  0  0  0  0  0
  -14.8840   27.5090   -0.1280 C   0  0  0  0  0  0  0  0  0  0  0  0
  -16.1030   26.9260   -0.5430 C   0  0  0  0  0  0  0  0  0  0  0  0
  -17.2930   27.3080   -1.2390 C   0  0  0  0  0  0  0  0  0  0  0  0
  -18.0730   26.1710   -1.4030 C   0  0  0  0  0  0  0  0  0  0  0  0
  -17.4190   25.0700   -0.8260 N   0  0  0  0  0  0  0  0  0  0  0  0
  -16.2250   25.5170   -0.2570 C   0  0  0  0  0  0  0  0  0  0  0  0
  -15.3280   24.7150    0.4360 N   0  0  0  0  0  0  0  0  0  0  0  0
  -14.2250   25.3110    0.8840 C   0  0  0  0  0  0  0  0  0  0  0  0
  -13.0460   31.1510   -0.4960 H   0  0  0  0  0  0  0  0  0  0  0  0
  -12.5330   30.1860   -1.9630 H   0  0  0  0  0  0  0  0  0  0  0  0
  -12.8070   32.5950   -2.5120 H   0  0  0  0  0  0  0  0  0  0  0  0
  -14.0740   31.6220   -3.3900 H   0  0  0  0  0  0  0  0  0  0  0  0
  -16.7410   32.6090   -0.8470 H   0  0  0  0  0  0  0  0  0  0  0  0
  -16.5590   31.7440   -2.4340 H   0  0  0  0  0  0  0  0  0  0  0  0
  -16.6950   30.0390   -0.7170 H   0  0  0  0  0  0  0  0  0  0  0  0
  -15.5140   30.8980    0.3650 H   0  0  0  0  0  0  0  0  0  0  0  0
  -12.3330   29.4890    0.5500 H   0  0  0  0  0  0  0  0  0  0  0  0
  -17.5690   28.2830   -1.6000 H   0  0  0  0  0  0  0  0  0  0  0  0
  -19.0200   26.0720   -1.9070 H   0  0  0  0  0  0  0  0  0  0  0  0
  -13.4940   24.7000    1.4390 H   0  0  0  0  0  0  0  0  0  0  0  0
  -17.8150   24.1300   -0.7410 H   0  0  0  0  0  0  0  0  0  0  0  0
  -15.5470   28.2530   -2.5420 H   0  0  0  0  0  0  0  0  0  0  0  0
  -15.6170   29.8840   -3.2400 H   0  0  0  0  0  0  0  0  0  0  0  0
  -14.0540   28.9640   -3.2540 H   0  0  0  0  0  0  0  0  0  0  0  0
  -15.8260   36.0410   -3.1750 H   0  0  0  0  0  0  0  0  0  0  0  0
  -16.9330   34.7210   -2.7060 H   0  0  0  0  0  0  0  0  0  0  0  0
  -15.7210   34.4350   -3.9800 H   0  0  0  0  0  0  0  0  0  0  0  0
  1  2  1  0  0  0  0
  2  3  1  0  0  0  0
  2  7  1  0  0  0  0
  2 12  1  0  0  0  0
  3  4  1  0  0  0  0
  4  5  1  0  0  0  0
  5  8  1  0  0  0  0
  6  7  1  0  0  0  0
  6  5  1  0  0  0  0
  9  8  2  0  0  0  0
 10  8  2  0  0  0  0
 11  8  1  0  0  0  0
 13 12  1  0  0  0  0
 13 14  2  0  0  0  0
 15 16  2  0  0  0  0
 15 23  1  0  0  0  0
 15 14  1  0  0  0  0
 16 17  1  0  0  0  0
 16 12  1  0  0  0  0
 17 18  1  0  0  0  0
 17 21  2  0  0  0  0
 18 19  2  0  0  0  0
 19 20  1  0  0  0  0
 21 20  1  0  0  0  0
 21 22  1  0  0  0  0
 23 22  2  0  0  0  0
 24  3  1  0  0  0  0
 25  3  1  0  0  0  0
 26  4  1  0  0  0  0
 27  4  1  0  0  0  0
 28  6  1  0  0  0  0
 29  6  1  0  0  0  0
 30  7  1  0  0  0  0
 31  7  1  0  0  0  0
 32 13  1  0  0  0  0
 33 18  1  0  0  0  0
 34 19  1  0  0  0  0
 35 23  1  0  0  0  0
 36 20  1  0  0  0  0
 37  1  1  0  0  0  0
 38  1  1  0  0  0  0
 39  1  1  0  0  0  0
 40 11  1  0  0  0  0
 41 11  1  0  0  0  0
 42 11  1  0  0  0  0
M  END
>  <charge>
0

>  <pKi>
8.77

>  <number_of_rotatable_bonds>
2

>  <lm5_entropy_jk>
32.10319483426943

$$$$
