3QTX
 OpenBabel11252210453D

 41 43  0  0  1  0  0  0  0  0999 V2000
   66.0240  154.3300  -50.4400 N   0  0  0  0  0  0  0  0  0  0  0  0
   67.5690  153.4500  -52.0520 N   0  0  0  0  0  0  0  0  0  0  0  0
   64.6300  154.8060  -48.5810 N   0  0  0  0  0  0  0  0  0  0  0  0
   71.2500  149.1420  -46.3800 N   0  3  0  0  0  0  0  0  0  0  0  0
   62.0910  152.7810  -42.6600 N   0  0  0  0  0  0  0  0  0  0  0  0
   67.1230  153.4810  -50.7730 C   0  0  0  0  0  0  0  0  0  0  0  0
   67.6260  152.6650  -49.7370 C   0  0  0  0  0  0  0  0  0  0  0  0
   68.5940  151.6140  -49.8280 C   0  0  0  0  0  0  0  0  0  0  0  0
   68.6690  150.6760  -48.6510 C   0  0  0  0  0  0  0  0  0  0  0  0
   69.9050  150.3870  -48.0650 C   0  0  0  0  0  0  0  0  0  0  0  0
   69.9550  149.4800  -46.9940 C   0  0  0  0  0  0  0  0  0  0  0  0
   68.7910  148.8920  -46.4740 C   0  0  0  0  0  0  0  0  0  0  0  0
   67.5680  149.2040  -47.0610 C   0  0  0  0  0  0  0  0  0  0  0  0
   67.5050  150.0670  -48.1580 C   0  0  0  0  0  0  0  0  0  0  0  0
   65.6790  154.1130  -49.1520 C   0  0  0  0  0  0  0  0  0  0  0  0
   63.9430  154.5090  -47.3640 C   0  0  0  0  0  0  0  0  0  0  0  0
   63.0060  155.4840  -46.9480 C   0  0  0  0  0  0  0  0  0  0  0  0
   62.2410  155.2760  -45.8070 C   0  0  0  0  0  0  0  0  0  0  0  0
   62.3970  154.1010  -45.0550 C   0  0  0  0  0  0  0  0  0  0  0  0
   63.3520  153.1580  -45.4480 C   0  0  0  0  0  0  0  0  0  0  0  0
   64.1160  153.3440  -46.6040 C   0  0  0  0  0  0  0  0  0  0  0  0
   69.3170  151.4420  -50.8000 O   0  0  0  0  0  0  0  0  0  0  0  0
   72.1930  149.8880  -46.5930 O   0  0  0  0  0  0  0  0  0  0  0  0
   71.3180  148.1510  -45.6700 O   0  5  0  0  0  0  0  0  0  0  0  0
   60.1470  153.0990  -44.3840 O   0  0  0  0  0  0  0  0  0  0  0  0
   60.9610  155.0040  -43.0190 O   0  0  0  0  0  0  0  0  0  0  0  0
   66.7620  152.9380  -48.2640 S   0  0  0  0  0  0  0  0  0  0  0  0
   61.2890  153.7820  -43.7730 S   0  0  0  0  0  0  0  0  0  0  0  0
   67.1700  154.0860  -52.7710 H   0  0  0  0  0  0  0  0  0  0  0  0
   68.3790  152.8710  -52.2950 H   0  0  0  0  0  0  0  0  0  0  0  0
   70.8200  150.8670  -48.4310 H   0  0  0  0  0  0  0  0  0  0  0  0
   68.8320  148.2040  -45.6220 H   0  0  0  0  0  0  0  0  0  0  0  0
   66.6490  148.7850  -46.6470 H   0  0  0  0  0  0  0  0  0  0  0  0
   66.5300  150.2450  -48.6150 H   0  0  0  0  0  0  0  0  0  0  0  0
   64.0660  155.4170  -49.2280 H   0  0  0  0  0  0  0  0  0  0  0  0
   62.8600  156.3920  -47.5370 H   0  0  0  0  0  0  0  0  0  0  0  0
   61.5130  156.0470  -45.5230 H   0  0  0  0  0  0  0  0  0  0  0  0
   63.5300  152.2460  -44.8670 H   0  0  0  0  0  0  0  0  0  0  0  0
   64.8030  152.5460  -46.8870 H   0  0  0  0  0  0  0  0  0  0  0  0
   62.2030  151.7680  -42.9500 H   0  0  0  0  0  0  0  0  0  0  0  0
   61.8950  152.8580  -41.6530 H   0  0  0  0  0  0  0  0  0  0  0  0
  1  6  1  0  0  0  0
  1 15  2  0  0  0  0
  2  6  1  0  0  0  0
  2 29  1  0  0  0  0
  2 30  1  0  0  0  0
  3 15  1  0  0  0  0
  3 16  1  0  0  0  0
  3 35  1  0  0  0  0
  4 11  1  0  0  0  0
  4 23  2  0  0  0  0
  4 24  1  0  0  0  0
  5 28  1  0  0  0  0
  5 40  1  0  0  0  0
  5 41  1  0  0  0  0
  6  7  2  0  0  0  0
  7 27  1  0  0  0  0
  8  7  1  0  0  0  0
  8  9  1  0  0  0  0
  8 22  2  0  0  0  0
  9 10  2  0  0  0  0
  9 14  1  0  0  0  0
 10 11  1  0  0  0  0
 10 31  1  0  0  0  0
 11 12  2  0  0  0  0
 12 13  1  0  0  0  0
 12 32  1  0  0  0  0
 13 14  2  0  0  0  0
 13 33  1  0  0  0  0
 14 34  1  0  0  0  0
 15 27  1  0  0  0  0
 16 17  2  0  0  0  0
 16 21  1  0  0  0  0
 17 18  1  0  0  0  0
 17 36  1  0  0  0  0
 18 19  2  0  0  0  0
 18 37  1  0  0  0  0
 19 20  1  0  0  0  0
 19 28  1  0  0  0  0
 20 21  2  0  0  0  0
 20 38  1  0  0  0  0
 21 39  1  0  0  0  0
 25 28  2  0  0  0  0
 26 28  2  0  0  0  0
M  CHG  2   4   1  24  -1
M  END
>  <lm5_entropy_jk>
24.48849005177307

>  <number_of_rotatable_bonds>
6

>  <IC50_NM>
70

>  <charge>
0

$$$$
