untitled
  ChemPy            3D                             0

 15 16  0  0  1  0  0  0  0  0999 V2000
   23.4810    6.9240   18.1830 C   0  0  0  0  0  0  0  0  0  0  0  0
   23.1950    6.3310   19.4280 C   0  0  0  0  0  0  0  0  0  0  0  0
   22.2420    6.9700   20.3120 C   0  0  0  0  0  0  0  0  0  0  0  0
   21.5820    8.1530   19.9420 C   0  0  0  0  0  0  0  0  0  0  0  0
   21.8400    8.6730   18.6910 C   0  0  0  0  0  0  0  0  0  0  0  0
   22.7870    8.0640   17.8230 C   0  0  0  0  0  0  0  0  0  0  0  0
   23.6740    5.1580   20.0350 N   0  0  0  0  0  0  0  0  0  0  0  0
   23.0560    5.0660   21.2280 C   0  0  0  0  0  0  0  0  0  0  0  0
   22.1870    6.1640   21.4540 N   0  0  0  0  0  0  0  0  0  0  0  0
   24.9560    6.0470   16.9460 I   0  0  0  0  0  0  0  0  0  0  0  0
   23.1530    8.9150   15.9260 I   0  0  0  0  0  0  0  0  0  0  0  0
   20.8150   10.4290   18.0920 I   0  0  0  0  0  0  0  0  0  0  0  0
   20.2810    8.9840   21.3850 I   0  0  0  0  0  0  0  0  0  0  0  0
   21.5670    6.2950   22.2570 H   0  0  0  0  0  0  0  0  0  0  0  0
   23.1640    4.2750   21.9720 H   0  0  0  0  0  0  0  0  0  0  0  0
  1  2  2  0  0  0  0
  1  6  1  0  0  0  0
  1 10  1  0  0  0  0
  2  3  1  0  0  0  0
  2  7  1  0  0  0  0
  3  4  2  0  0  0  0
  3  9  1  0  0  0  0
  4  5  1  0  0  0  0
  4 13  1  0  0  0  0
  5  6  2  0  0  0  0
  5 12  1  0  0  0  0
  6 11  1  0  0  0  0
  7  8  2  0  0  0  0
  8  9  1  0  0  0  0
  8 15  1  0  0  0  0
  9 14  1  0  0  0  0
M  END
>  <charge>
0

>  <Ki_NM>
23

>  <number_of_rotatable_bonds>
0

>  <lm5_entropy_jk>
7.2278

$$$$
