model35
 OpenBabel11252210453D

 75 76  0  0  1  0  0  0  0  0999 V2000
    8.4010   18.3500    8.9290 N   0  0  0  0  0  0  0  0  0  0  0  0
   11.2170   17.8820    7.5360 C   0  0  1  0  0  0  0  0  0  0  0  0
   12.0830   18.7160    6.7770 O   0  0  0  0  0  0  0  0  0  0  0  0
    9.8090   18.1450    6.9700 C   0  0  0  0  0  0  0  0  0  0  0  0
    4.7710   17.6890    9.5650 N   0  0  0  0  0  0  0  0  0  0  0  0
   11.2220   15.2800    3.9990 O   0  0  0  0  0  0  0  0  0  0  0  0
    8.7390   17.5990    7.8380 C   0  0  0  0  0  0  0  0  0  0  0  0
   11.8230   15.9730    6.0090 N   0  0  0  0  0  0  0  0  0  0  0  0
    5.8340   19.1700    8.2030 O   0  0  0  0  0  0  0  0  0  0  0  0
    7.2300   17.9660    9.7830 C   0  0  1  0  0  0  0  0  0  0  0  0
    8.2070   16.5410    7.5990 O   0  0  0  0  0  0  0  0  0  0  0  0
    7.3890   18.5030   11.2320 C   0  0  0  0  0  0  0  0  0  0  0  0
   10.1290   14.4300    5.8470 O   0  0  0  0  0  0  0  0  0  0  0  0
    6.4830   17.7890   12.2390 C   0  0  0  0  0  0  0  0  0  0  0  0
    7.0900   20.0030   11.3310 C   0  0  0  0  0  0  0  0  0  0  0  0
    5.8980   18.3340    9.0910 C   0  0  0  0  0  0  0  0  0  0  0  0
    3.3780   18.0510    9.1840 C   0  0  0  0  0  0  0  0  0  0  0  0
    2.5550   16.8420    8.6490 C   0  0  0  0  0  0  0  0  0  0  0  0
    3.2410   16.1850    7.5510 O   0  0  0  0  0  0  0  0  0  0  0  0
    3.6590   17.0210    6.4490 C   0  0  0  0  0  0  0  0  0  0  0  0
    4.1680   16.0860    5.3410 C   0  0  0  0  0  0  0  0  0  0  0  0
    4.9960   16.8430    4.4290 O   0  0  0  0  0  0  0  0  0  0  0  0
    6.3440   17.0970    4.8980 C   0  0  0  0  0  0  0  0  0  0  0  0
    7.2600   17.2380    3.6660 C   0  0  0  0  0  0  0  0  0  0  0  0
    8.3560   16.3220    3.8680 O   0  0  0  0  0  0  0  0  0  0  0  0
    9.3250   16.2350    2.8040 C   0  0  0  0  0  0  0  0  0  0  0  0
   10.1840   14.9610    3.0380 C   0  0  0  0  0  0  0  0  0  0  0  0
   11.6730   16.3760    7.4150 C   0  0  1  0  0  0  0  0  0  0  0  0
   10.9700   15.1530    5.3340 C   0  0  0  0  0  0  0  0  0  0  0  0
   13.0120   16.1260    8.1620 C   0  0  0  0  0  0  0  0  0  0  0  0
   13.5330   14.6990    8.0760 C   0  0  0  0  0  0  0  0  0  0  0  0
   12.7880   13.6400    8.6120 C   0  0  0  0  0  0  0  0  0  0  0  0
   13.2700   12.3210    8.5570 C   0  0  0  0  0  0  0  0  0  0  0  0
   14.5140   12.0590    7.9600 C   0  0  0  0  0  0  0  0  0  0  0  0
   15.2750   13.1150    7.4320 C   0  0  0  0  0  0  0  0  0  0  0  0
   14.7830   14.4310    7.4960 C   0  0  0  0  0  0  0  0  0  0  0  0
   15.3750   15.2460    7.0890 H   0  0  0  0  0  0  0  0  0  0  0  0
    8.7890   19.2890    8.9930 H   0  0  0  0  0  0  0  0  0  0  0  0
   11.2500   18.1730    8.6020 H   0  0  0  0  0  0  0  0  0  0  0  0
   12.8080   19.0230    7.3850 H   0  0  0  0  0  0  0  0  0  0  0  0
    9.6800   17.6540    6.0000 H   0  0  0  0  0  0  0  0  0  0  0  0
    4.9400   16.9140   10.2020 H   0  0  0  0  0  0  0  0  0  0  0  0
   12.4660   16.4720    5.4130 H   0  0  0  0  0  0  0  0  0  0  0  0
    7.1890   16.8750    9.8470 H   0  0  0  0  0  0  0  0  0  0  0  0
    8.4310   18.3050   11.5270 H   0  0  0  0  0  0  0  0  0  0  0  0
    6.5790   16.7000   12.1580 H   0  0  0  0  0  0  0  0  0  0  0  0
    7.6640   20.5690   10.5890 H   0  0  0  0  0  0  0  0  0  0  0  0
    3.3930   18.8490    8.4260 H   0  0  0  0  0  0  0  0  0  0  0  0
    1.5570   17.1850    8.3330 H   0  0  0  0  0  0  0  0  0  0  0  0
    4.4770   17.6830    6.7620 H   0  0  0  0  0  0  0  0  0  0  0  0
    3.3110   15.6410    4.8140 H   0  0  0  0  0  0  0  0  0  0  0  0
    6.7200   16.2640    5.5070 H   0  0  0  0  0  0  0  0  0  0  0  0
    7.6110   18.2740    3.5700 H   0  0  0  0  0  0  0  0  0  0  0  0
    9.9750   17.1220    2.7890 H   0  0  0  0  0  0  0  0  0  0  0  0
   10.6360   14.6430    2.0870 H   0  0  0  0  0  0  0  0  0  0  0  0
   10.8870   15.7520    7.8720 H   0  0  0  0  0  0  0  0  0  0  0  0
   12.8890   16.3940    9.2180 H   0  0  0  0  0  0  0  0  0  0  0  0
   11.8340   13.8440    9.0830 H   0  0  0  0  0  0  0  0  0  0  0  0
   12.6850   11.5070    8.9830 H   0  0  0  0  0  0  0  0  0  0  0  0
   14.8890   11.0370    7.9130 H   0  0  0  0  0  0  0  0  0  0  0  0
   16.2450   12.9160    6.9740 H   0  0  0  0  0  0  0  0  0  0  0  0
   13.7630   16.8220    7.7740 H   0  0  0  0  0  0  0  0  0  0  0  0
    9.6120   19.2080    6.8410 H   0  0  0  0  0  0  0  0  0  0  0  0
    5.4260   18.0510   12.1040 H   0  0  0  0  0  0  0  0  0  0  0  0
    7.3050   20.3990   12.3320 H   0  0  0  0  0  0  0  0  0  0  0  0
    2.8630   18.4810   10.0590 H   0  0  0  0  0  0  0  0  0  0  0  0
    2.3910   16.1250    9.4690 H   0  0  0  0  0  0  0  0  0  0  0  0
    2.8380   17.6460    6.0690 H   0  0  0  0  0  0  0  0  0  0  0  0
    4.7390   15.2650    5.7950 H   0  0  0  0  0  0  0  0  0  0  0  0
    6.3900   17.9880    5.5390 H   0  0  0  0  0  0  0  0  0  0  0  0
    6.6950   16.9770    2.7590 H   0  0  0  0  0  0  0  0  0  0  0  0
    8.8200   16.1670    1.8300 H   0  0  0  0  0  0  0  0  0  0  0  0
    9.5500   14.1360    3.3950 H   0  0  0  0  0  0  0  0  0  0  0  0
    6.0310   20.2070   11.1270 H   0  0  0  0  0  0  0  0  0  0  0  0
    6.7470   18.0710   13.2670 H   0  0  0  0  0  0  0  0  0  0  0  0
  1 38  1  0  0  0  0
  1 10  1  0  0  0  0
  2 39  1  1  0  0  0
  2 28  1  0  0  0  0
  3 40  1  0  0  0  0
  3  2  1  0  0  0  0
  4  2  1  0  0  0  0
  4  7  1  0  0  0  0
  5 42  1  0  0  0  0
  6 29  1  0  0  0  0
  7  1  1  0  0  0  0
  8 28  1  0  0  0  0
  9 16  2  0  0  0  0
 10 44  1  1  0  0  0
 10 12  1  0  0  0  0
 11  7  2  0  0  0  0
 12 15  1  0  0  0  0
 12 45  1  0  0  0  0
 12 14  1  0  0  0  0
 14 75  1  0  0  0  0
 15 65  1  0  0  0  0
 16  5  1  0  0  0  0
 16 10  1  0  0  0  0
 17 66  1  0  0  0  0
 17  5  1  0  0  0  0
 18 67  1  0  0  0  0
 18 17  1  0  0  0  0
 19 18  1  0  0  0  0
 20 50  1  0  0  0  0
 20 19  1  0  0  0  0
 21 69  1  0  0  0  0
 21 20  1  0  0  0  0
 22 23  1  0  0  0  0
 22 21  1  0  0  0  0
 23 70  1  0  0  0  0
 23 52  1  0  0  0  0
 24 71  1  0  0  0  0
 24 23  1  0  0  0  0
 25 24  1  0  0  0  0
 26 25  1  0  0  0  0
 26 27  1  0  0  0  0
 27 73  1  0  0  0  0
 27  6  1  0  0  0  0
 28 56  1  1  0  0  0
 28 30  1  0  0  0  0
 29 13  2  0  0  0  0
 29  8  1  0  0  0  0
 30 57  1  0  0  0  0
 31 30  1  0  0  0  0
 31 32  2  0  0  0  0
 32 58  1  0  0  0  0
 33 32  1  0  0  0  0
 33 59  1  0  0  0  0
 34 33  2  0  0  0  0
 35 36  2  0  0  0  0
 35 34  1  0  0  0  0
 36 31  1  0  0  0  0
 37 36  1  0  0  0  0
 41  4  1  0  0  0  0
 43  8  1  0  0  0  0
 46 14  1  0  0  0  0
 47 15  1  0  0  0  0
 48 17  1  0  0  0  0
 49 18  1  0  0  0  0
 51 21  1  0  0  0  0
 53 24  1  0  0  0  0
 54 26  1  0  0  0  0
 55 27  1  0  0  0  0
 60 34  1  0  0  0  0
 61 35  1  0  0  0  0
 62 30  1  0  0  0  0
 63  4  1  0  0  0  0
 64 14  1  0  0  0  0
 68 20  1  0  0  0  0
 72 26  1  0  0  0  0
 74 15  1  0  0  0  0
M  END
>  <IC50_NM>
850

>  <number_of_rotatable_bonds>
3

>  <charge>
0

>  <lm5_entropy_jk>
31.13362949117809

$$$$
