5NY6
 OpenBabel11252210453D

 37 38  0  0  1  0  0  0  0  0999 V2000
   -4.0550    4.4330   12.0790 C   0  0  0  0  0  0  0  0  0  0  0  0
   -5.7120    3.8730   15.4510 C   0  0  0  0  0  0  0  0  0  0  0  0
   -5.7630    1.3700   15.9150 N   0  5  0  0  0  0  0  0  0  0  0  0
   -4.8430    2.8490   17.6010 O   0  0  0  0  0  0  0  0  0  0  0  0
   -4.9740    3.5990   14.2750 C   0  0  0  0  0  0  0  0  0  0  0  0
   -7.2960    2.7650   17.2020 O   0  0  0  0  0  0  0  0  0  0  0  0
   -4.7610    4.6350   13.3530 C   0  0  0  0  0  0  0  0  0  0  0  0
   -5.1930    5.9380   13.6170 C   0  0  0  0  0  0  0  0  0  0  0  0
   -5.8910    6.2000   14.7910 C   0  0  0  0  0  0  0  0  0  0  0  0
   -6.1670    5.1790   15.6970 C   0  0  0  0  0  0  0  0  0  0  0  0
   -4.6340    4.4490   11.0120 O   0  0  0  0  0  0  0  0  0  0  0  0
   -2.7010    4.4070   12.1930 N   0  0  0  0  0  0  0  0  0  0  0  0
   -1.8720    4.9890   11.1600 C   0  0  1  0  0  0  0  0  0  0  0  0
   -1.9000    6.5200   11.2050 C   0  0  0  0  0  0  0  0  0  0  0  0
   -1.6400    7.2530   12.3810 C   0  0  0  0  0  0  0  0  0  0  0  0
   -1.3280    6.6120   13.5270 O   0  0  0  0  0  0  0  0  0  0  0  0
   -1.6970    8.6480   12.3870 C   0  0  0  0  0  0  0  0  0  0  0  0
   -2.2280    7.2310   10.0310 C   0  0  0  0  0  0  0  0  0  0  0  0
   -2.0160    9.3530   11.2170 C   0  0  0  0  0  0  0  0  0  0  0  0
   -2.2820    8.6360   10.0410 C   0  0  0  0  0  0  0  0  0  0  0  0
   -0.4680    4.4520   11.3360 C   0  0  0  0  0  0  0  0  0  0  0  0
   -7.0120    5.6580   17.1420 Cl  0  0  0  0  0  0  0  0  0  0  0  0
   -5.9520    2.6790   16.7020 S   0  0  0  0  0  0  0  0  0  0  0  0
   -4.5650    2.6080   14.0580 H   0  0  0  0  0  0  0  0  0  0  0  0
   -4.9760    6.7440   12.9120 H   0  0  0  0  0  0  0  0  0  0  0  0
   -6.2060    7.2150   15.0150 H   0  0  0  0  0  0  0  0  0  0  0  0
   -2.3340    4.2520   13.1220 H   0  0  0  0  0  0  0  0  0  0  0  0
   -2.2620    4.6630   10.1780 H   0  0  0  0  0  0  0  0  0  0  0  0
   -1.2490    5.6860   13.2410 H   0  0  0  0  0  0  0  0  0  0  0  0
   -1.4910    9.1860   13.3110 H   0  0  0  0  0  0  0  0  0  0  0  0
   -2.4440    6.6990    9.1040 H   0  0  0  0  0  0  0  0  0  0  0  0
   -2.0590   10.4440   11.2190 H   0  0  0  0  0  0  0  0  0  0  0  0
   -2.5360    9.1750    9.1260 H   0  0  0  0  0  0  0  0  0  0  0  0
   -4.8550    1.4190   16.4480 H   0  0  0  0  0  0  0  0  0  0  0  0
   -0.4850    3.3550   11.3010 H   0  0  0  0  0  0  0  0  0  0  0  0
    0.1660    4.8160   10.5150 H   0  0  0  0  0  0  0  0  0  0  0  0
    0.0080    4.7580   12.2730 H   0  0  0  0  0  0  0  0  0  0  0  0
  1  7  1  0  0  0  0
  1 11  2  0  0  0  0
  1 12  1  0  0  0  0
  2  5  2  0  0  0  0
  2 10  1  0  0  0  0
  2 23  1  0  0  0  0
  3 23  1  0  0  0  0
  4 23  2  0  0  0  0
  5  7  1  0  0  0  0
  6 23  2  0  0  0  0
  7  8  2  0  0  0  0
  8  9  1  0  0  0  0
  9 10  2  0  0  0  0
 12 13  1  0  0  0  0
 13 14  1  0  0  0  0
 13 21  1  0  0  0  0
 13 28  1  6  0  0  0
 14 15  2  0  0  0  0
 14 18  1  0  0  0  0
 15 16  1  0  0  0  0
 15 17  1  0  0  0  0
 17 19  2  0  0  0  0
 18 20  2  0  0  0  0
 19 20  1  0  0  0  0
 22 10  1  0  0  0  0
 24  5  1  0  0  0  0
 25  8  1  0  0  0  0
 26  9  1  0  0  0  0
 27 12  1  0  0  0  0
 29 16  1  0  0  0  0
 30 17  1  0  0  0  0
 31 18  1  0  0  0  0
 32 19  1  0  0  0  0
 33 20  1  0  0  0  0
 34  3  1  0  0  0  0
 35 21  1  0  0  0  0
 36 21  1  0  0  0  0
 37 21  1  0  0  0  0
M  CHG  1   3  -1
M  END
>  <deltaG_kcalmol>
-10.7

>  <number_of_rotatable_bonds>
5

>  <charge>
-1

>  <lm5_entropy_jk>
31.79279622482855

$$$$
