5NY6
 OpenBabel11252210453D

 37 38  0  0  1  0  0  0  0  0999 V2000
   -4.1540    4.4290   12.2000 C   0  0  0  0  0  0  0  0  0  0  0  0
   -5.5290    3.7670   15.6670 C   0  0  0  0  0  0  0  0  0  0  0  0
   -5.6520    1.2290   15.9660 N   0  5  0  0  0  0  0  0  0  0  0  0
   -4.9460    2.6480   17.8560 O   0  0  0  0  0  0  0  0  0  0  0  0
   -4.9150    3.5300   14.4190 C   0  0  0  0  0  0  0  0  0  0  0  0
   -7.3130    2.6180   17.0880 O   0  0  0  0  0  0  0  0  0  0  0  0
   -4.7270    4.6100   13.5450 C   0  0  0  0  0  0  0  0  0  0  0  0
   -5.1050    5.9100   13.9100 C   0  0  0  0  0  0  0  0  0  0  0  0
   -5.6570    6.1320   15.1700 C   0  0  0  0  0  0  0  0  0  0  0  0
   -5.8700    5.0720   16.0480 C   0  0  0  0  0  0  0  0  0  0  0  0
   -4.7640    4.7600   11.2040 O   0  0  0  0  0  0  0  0  0  0  0  0
   -2.8740    3.9600   12.1670 N   0  0  0  0  0  0  0  0  0  0  0  0
   -2.0180    4.2210   11.0260 C   0  0  1  0  0  0  0  0  0  0  0  0
   -1.6860    5.7100   10.8710 C   0  0  0  0  0  0  0  0  0  0  0  0
   -1.3930    6.5540   11.9650 C   0  0  0  0  0  0  0  0  0  0  0  0
   -1.3660    6.0640   13.2240 O   0  0  0  0  0  0  0  0  0  0  0  0
   -1.1290    7.9120   11.7750 C   0  0  0  0  0  0  0  0  0  0  0  0
   -1.6860    6.2670    9.5760 C   0  0  0  0  0  0  0  0  0  0  0  0
   -1.1400    8.4650   10.4860 C   0  0  0  0  0  0  0  0  0  0  0  0
   -1.4150    7.6340    9.3900 C   0  0  0  0  0  0  0  0  0  0  0  0
   -0.7500    3.4170   11.2050 C   0  0  0  0  0  0  0  0  0  0  0  0
   -6.5310    5.4770   17.6140 Cl  0  0  0  0  0  0  0  0  0  0  0  0
   -5.9110    2.5040   16.7990 S   0  0  0  0  0  0  0  0  0  0  0  0
   -4.6130    2.5300   14.1000 H   0  0  0  0  0  0  0  0  0  0  0  0
   -4.9530    6.7440   13.2220 H   0  0  0  0  0  0  0  0  0  0  0  0
   -5.9260    7.1410   15.4770 H   0  0  0  0  0  0  0  0  0  0  0  0
   -2.4700    3.6420   13.0440 H   0  0  0  0  0  0  0  0  0  0  0  0
   -2.5430    3.8820   10.1120 H   0  0  0  0  0  0  0  0  0  0  0  0
   -1.5580    5.1180   13.0950 H   0  0  0  0  0  0  0  0  0  0  0  0
   -0.9160    8.5410   12.6370 H   0  0  0  0  0  0  0  0  0  0  0  0
   -1.8970    5.6430    8.7070 H   0  0  0  0  0  0  0  0  0  0  0  0
   -0.9360    9.5280   10.3360 H   0  0  0  0  0  0  0  0  0  0  0  0
   -1.4220    8.0560    8.3830 H   0  0  0  0  0  0  0  0  0  0  0  0
   -4.8220    1.1530   16.6120 H   0  0  0  0  0  0  0  0  0  0  0  0
   -0.9830    2.3510   11.3020 H   0  0  0  0  0  0  0  0  0  0  0  0
   -0.1110    3.5360   10.3190 H   0  0  0  0  0  0  0  0  0  0  0  0
   -0.1720    3.7530   12.0760 H   0  0  0  0  0  0  0  0  0  0  0  0
  1  7  1  0  0  0  0
  1 11  2  0  0  0  0
  1 12  1  0  0  0  0
  2  5  2  0  0  0  0
  2 10  1  0  0  0  0
  2 23  1  0  0  0  0
  3 23  1  0  0  0  0
  4 23  2  0  0  0  0
  5  7  1  0  0  0  0
  6 23  2  0  0  0  0
  7  8  2  0  0  0  0
  8  9  1  0  0  0  0
  9 10  2  0  0  0  0
 12 13  1  0  0  0  0
 13 14  1  0  0  0  0
 13 21  1  0  0  0  0
 13 28  1  6  0  0  0
 14 15  2  0  0  0  0
 14 18  1  0  0  0  0
 15 16  1  0  0  0  0
 15 17  1  0  0  0  0
 17 19  2  0  0  0  0
 18 20  2  0  0  0  0
 19 20  1  0  0  0  0
 22 10  1  0  0  0  0
 24  5  1  0  0  0  0
 25  8  1  0  0  0  0
 26  9  1  0  0  0  0
 27 12  1  0  0  0  0
 29 16  1  0  0  0  0
 30 17  1  0  0  0  0
 31 18  1  0  0  0  0
 32 19  1  0  0  0  0
 33 20  1  0  0  0  0
 34  3  1  0  0  0  0
 35 21  1  0  0  0  0
 36 21  1  0  0  0  0
 37 21  1  0  0  0  0
M  CHG  1   3  -1
M  END
>  <deltaG_kcalmol>
-10.7

>  <number_of_rotatable_bonds>
5

>  <charge>
-1

>  <lm5_entropy_jk>
31.79279622482855

$$$$
