5MNG
 OpenBabel11252210453D

 18 18  0  0  0  0  0  0  0  0999 V2000
   -2.5620   14.3800   14.0340 N   0  3  0  0  0  0  0  0  0  0  0  0
   -1.5900   12.4720   15.0140 N   0  0  0  0  0  0  0  0  0  0  0  0
   -1.9380   13.7910   15.0990 C   0  0  0  0  0  0  0  0  0  0  0  0
   -1.5960   14.5900   16.3180 C   0  0  0  0  0  0  0  0  0  0  0  0
   -1.6510   16.0060   16.3020 C   0  0  0  0  0  0  0  0  0  0  0  0
   -1.3410   16.7520   17.4510 C   0  0  0  0  0  0  0  0  0  0  0  0
   -0.9750   16.1050   18.6380 C   0  0  0  0  0  0  0  0  0  0  0  0
   -0.9230   14.7060   18.6760 C   0  0  0  0  0  0  0  0  0  0  0  0
   -1.2270   13.9520   17.5290 C   0  0  0  0  0  0  0  0  0  0  0  0
   -1.9290   16.5540   15.4050 H   0  0  0  0  0  0  0  0  0  0  0  0
   -1.3890   17.8420   17.4220 H   0  0  0  0  0  0  0  0  0  0  0  0
   -0.7340   16.6860   19.5290 H   0  0  0  0  0  0  0  0  0  0  0  0
   -0.6480   14.2100   19.6080 H   0  0  0  0  0  0  0  0  0  0  0  0
   -1.1810   12.8680   17.6050 H   0  0  0  0  0  0  0  0  0  0  0  0
   -3.0160   13.7390   13.3780 H   0  0  0  0  0  0  0  0  0  0  0  0
   -3.0190   15.2780   14.1740 H   0  0  0  0  0  0  0  0  0  0  0  0
   -1.1030   12.0240   15.7850 H   0  0  0  0  0  0  0  0  0  0  0  0
   -2.1040   11.8720   14.3670 H   0  0  0  0  0  0  0  0  0  0  0  0
  1  3  2  0  0  0  0
  1 15  1  0  0  0  0
  1 16  1  0  0  0  0
  2  3  1  0  0  0  0
  2 17  1  0  0  0  0
  2 18  1  0  0  0  0
  3  4  1  0  0  0  0
  4  5  2  0  0  0  0
  4  9  1  0  0  0  0
  5  6  1  0  0  0  0
  5 10  1  0  0  0  0
  6  7  2  0  0  0  0
  6 11  1  0  0  0  0
  7  8  1  0  0  0  0
  7 12  1  0  0  0  0
  8  9  2  0  0  0  0
  8 13  1  0  0  0  0
  9 14  1  0  0  0  0
M  CHG  1   1   1
M  END
>  <number_of_rotatable_bonds>
1

>  <lm5_entropy_jk>
14.133140156892344

>  <deltaG_kcalmol>
-6.40

>  <charge>
1

$$$$
