1ZOE
 OpenBabel11252210453D

 23 24  0  0  1  0  0  0  0  0999 V2000
   21.7030    8.8900   18.8780 C   0  0  0  0  0  0  0  0  0  0  0  0
   21.3670    8.4960   20.2050 C   0  0  0  0  0  0  0  0  0  0  0  0
   21.9570    7.3460   20.7790 C   0  0  0  0  0  0  0  0  0  0  0  0
   22.6680    8.1570   18.1430 C   0  0  0  0  0  0  0  0  0  0  0  0
   23.4300    5.4350   20.2550 N   0  0  0  0  0  0  0  0  0  0  0  0
   23.2180    7.0160   18.7340 C   0  0  0  0  0  0  0  0  0  0  0  0
   22.8440    6.6260   19.9810 C   0  0  0  0  0  0  0  0  0  0  0  0
   24.1380    5.1700   19.0890 C   0  0  0  0  0  0  0  0  0  0  0  0
   24.0660    6.1370   18.1560 N   0  0  0  0  0  0  0  0  0  0  0  0
   24.7960    3.9510   18.9160 N   0  0  0  0  0  0  0  0  0  0  0  0
   24.7840    2.8660   19.9280 C   0  0  0  0  0  0  0  0  0  0  0  0
   25.4750    3.5710   17.6570 C   0  0  0  0  0  0  0  0  0  0  0  0
   20.8140   10.3820   18.0430 Br  0  0  0  0  0  0  0  0  0  0  0  0
   21.5690    6.7630   22.5690 Br  0  0  0  0  0  0  0  0  0  0  0  0
   23.1500    8.6260   16.3480 Br  0  0  0  0  0  0  0  0  0  0  0  0
   20.0680    9.4800   21.2150 Br  0  0  0  0  0  0  0  0  0  0  0  0
   23.2820    4.8120   21.0330 H   0  0  0  0  0  0  0  0  0  0  0  0
   25.3060    4.3210   16.8740 H   0  0  0  0  0  0  0  0  0  0  0  0
   25.3950    2.0080   19.6130 H   0  0  0  0  0  0  0  0  0  0  0  0
   25.0900    2.6150   17.2750 H   0  0  0  0  0  0  0  0  0  0  0  0
   23.7610    2.4930   20.0920 H   0  0  0  0  0  0  0  0  0  0  0  0
   26.5580    3.4750   17.8040 H   0  0  0  0  0  0  0  0  0  0  0  0
   25.1820    3.2170   20.8880 H   0  0  0  0  0  0  0  0  0  0  0  0
  1  2  2  0  0  0  0
  1  4  1  0  0  0  0
  1 13  1  0  0  0  0
  2  3  1  0  0  0  0
  2 16  1  0  0  0  0
  3  7  2  0  0  0  0
  3 14  1  0  0  0  0
  4  6  2  0  0  0  0
  4 15  1  0  0  0  0
  5  7  1  0  0  0  0
  5  8  1  0  0  0  0
  5 17  1  0  0  0  0
  6  7  1  0  0  0  0
  6  9  1  0  0  0  0
  8  9  2  0  0  0  0
  8 10  1  0  0  0  0
 10 11  1  0  0  0  0
 10 12  1  0  0  0  0
 11 19  1  0  0  0  0
 11 21  1  0  0  0  0
 11 23  1  0  0  0  0
 12 18  1  0  0  0  0
 12 20  1  0  0  0  0
 12 22  1  0  0  0  0
M  END
>  <charge>
0

>  <Ki_NM>
45

>  <number_of_rotatable_bonds>
1

>  <lm5_entropy_jk>
28.431029787763457

$$$$
