01-25.pdb
 OpenBabel11252210453D

 83 85  0  0  1  0  0  0  0  0999 V2000
    6.1330   18.2900   12.0830 C   0  0  0  0  0  0  0  0  0  0  0  0
   11.2480   17.8330    7.5720 C   0  0  1  0  0  0  0  0  0  0  0  0
    4.9700   16.5070   13.2680 N   0  0  0  0  0  0  0  0  0  0  0  0
    8.3360   18.4210    8.9570 N   0  0  0  0  0  0  0  0  0  0  0  0
   12.1870   18.6190    6.8070 O   0  0  0  0  0  0  0  0  0  0  0  0
    5.1750   19.2140   12.5250 C   0  0  0  0  0  0  0  0  0  0  0  0
    9.8690   18.2470    7.0160 C   0  0  0  0  0  0  0  0  0  0  0  0
    4.8060   17.4230    9.4570 N   0  0  0  0  0  0  0  0  0  0  0  0
    5.6840   19.2320    8.3570 O   0  0  0  0  0  0  0  0  0  0  0  0
    4.1020   18.7670   13.3010 C   0  0  0  0  0  0  0  0  0  0  0  0
    8.7260   17.6700    7.8270 C   0  0  0  0  0  0  0  0  0  0  0  0
   11.6810   15.9800    5.9610 N   0  0  0  0  0  0  0  0  0  0  0  0
    8.1910   16.6040    7.5810 O   0  0  0  0  0  0  0  0  0  0  0  0
    4.0180   17.4050   13.6330 C   0  0  0  0  0  0  0  0  0  0  0  0
    7.2050   17.9850    9.8040 C   0  0  1  0  0  0  0  0  0  0  0  0
   10.3510   14.0960    6.0110 O   0  0  0  0  0  0  0  0  0  0  0  0
    7.2610   18.6950   11.1770 C   0  0  0  0  0  0  0  0  0  0  0  0
    6.0070   16.9500   12.5140 C   0  0  0  0  0  0  0  0  0  0  0  0
    5.8510   18.2750    9.0950 C   0  0  0  0  0  0  0  0  0  0  0  0
    3.5140   17.4240    8.7220 C   0  0  0  0  0  0  0  0  0  0  0  0
    3.4090   16.2580    7.7210 C   0  0  0  0  0  0  0  0  0  0  0  0
    4.4130   16.3360    6.5620 C   0  0  0  0  0  0  0  0  0  0  0  0
    4.0120   17.3490    5.4770 C   0  0  0  0  0  0  0  0  0  0  0  0
    5.2000   17.8640    4.6460 C   0  0  0  0  0  0  0  0  0  0  0  0
    6.1180   16.7430    4.1330 C   0  0  0  0  0  0  0  0  0  0  0  0
    6.9940   17.2010    2.9570 C   0  0  0  0  0  0  0  0  0  0  0  0
    7.9770   16.1110    2.4950 C   0  0  0  0  0  0  0  0  0  0  0  0
    9.2210   16.0180    3.3890 C   0  0  0  0  0  0  0  0  0  0  0  0
   10.0510   14.7630    3.0810 C   0  0  0  0  0  0  0  0  0  0  0  0
   11.3570   14.7100    3.8900 C   0  0  0  0  0  0  0  0  0  0  0  0
   11.5880   16.3110    7.3920 C   0  0  1  0  0  0  0  0  0  0  0  0
   11.0720   14.8500    5.3780 C   0  0  0  0  0  0  0  0  0  0  0  0
   12.9030   15.9810    8.1550 C   0  0  0  0  0  0  0  0  0  0  0  0
   13.3510   14.5550    7.9810 C   0  0  0  0  0  0  0  0  0  0  0  0
   12.6910   13.5100    8.6490 C   0  0  0  0  0  0  0  0  0  0  0  0
   13.0690   12.1810    8.4450 C   0  0  0  0  0  0  0  0  0  0  0  0
   14.1370   11.8760    7.5940 C   0  0  0  0  0  0  0  0  0  0  0  0
   14.8310   12.9120    6.9630 C   0  0  0  0  0  0  0  0  0  0  0  0
   14.4420   14.2410    7.1560 C   0  0  0  0  0  0  0  0  0  0  0  0
   15.0060   15.0350    6.6670 H   0  0  0  0  0  0  0  0  0  0  0  0
    8.6450   19.4020    9.0580 H   0  0  0  0  0  0  0  0  0  0  0  0
   11.3380   18.1130    8.6480 H   0  0  0  0  0  0  0  0  0  0  0  0
   12.8220   19.0890    7.4600 H   0  0  0  0  0  0  0  0  0  0  0  0
    9.7760   17.8890    5.9570 H   0  0  0  0  0  0  0  0  0  0  0  0
    5.0190   16.5140    9.9060 H   0  0  0  0  0  0  0  0  0  0  0  0
   12.4620   16.4510    5.4750 H   0  0  0  0  0  0  0  0  0  0  0  0
    7.3090   16.8790    9.9710 H   0  0  0  0  0  0  0  0  0  0  0  0
    7.2570   19.8050   11.0260 H   0  0  0  0  0  0  0  0  0  0  0  0
    8.2250   18.4120   11.6760 H   0  0  0  0  0  0  0  0  0  0  0  0
    5.2570   20.2760   12.2760 H   0  0  0  0  0  0  0  0  0  0  0  0
    3.3360   19.4670   13.6470 H   0  0  0  0  0  0  0  0  0  0  0  0
    3.1690   17.0240   14.2210 H   0  0  0  0  0  0  0  0  0  0  0  0
    6.7610   16.2030   12.2310 H   0  0  0  0  0  0  0  0  0  0  0  0
    3.3850   18.4040    8.1930 H   0  0  0  0  0  0  0  0  0  0  0  0
    2.3660   16.2460    7.3170 H   0  0  0  0  0  0  0  0  0  0  0  0
    4.4820   15.3250    6.0980 H   0  0  0  0  0  0  0  0  0  0  0  0
    3.5260   18.2350    5.9500 H   0  0  0  0  0  0  0  0  0  0  0  0
    5.8030   18.5630    5.2690 H   0  0  0  0  0  0  0  0  0  0  0  0
    5.4980   15.8820    3.7950 H   0  0  0  0  0  0  0  0  0  0  0  0
    7.5610   18.1140    3.2440 H   0  0  0  0  0  0  0  0  0  0  0  0
    8.3010   16.3460    1.4540 H   0  0  0  0  0  0  0  0  0  0  0  0
    8.9050   16.0010    4.4580 H   0  0  0  0  0  0  0  0  0  0  0  0
   10.3220   14.7590    1.9970 H   0  0  0  0  0  0  0  0  0  0  0  0
   12.0380   15.5180    3.5270 H   0  0  0  0  0  0  0  0  0  0  0  0
   10.7520   15.7210    7.8500 H   0  0  0  0  0  0  0  0  0  0  0  0
   12.7330   16.1990    9.2400 H   0  0  0  0  0  0  0  0  0  0  0  0
   11.9000   13.7440    9.3540 H   0  0  0  0  0  0  0  0  0  0  0  0
   12.5370   11.3810    8.9620 H   0  0  0  0  0  0  0  0  0  0  0  0
   14.4380   10.8390    7.4360 H   0  0  0  0  0  0  0  0  0  0  0  0
   15.6840   12.6880    6.3160 H   0  0  0  0  0  0  0  0  0  0  0  0
   13.7000   16.6800    7.8050 H   0  0  0  0  0  0  0  0  0  0  0  0
    9.8260   19.3630    7.0010 H   0  0  0  0  0  0  0  0  0  0  0  0
    2.7040   17.3160    9.4950 H   0  0  0  0  0  0  0  0  0  0  0  0
    3.5710   15.2970    8.2680 H   0  0  0  0  0  0  0  0  0  0  0  0
    5.4210   16.5990    6.9620 H   0  0  0  0  0  0  0  0  0  0  0  0
    3.2690   16.8720    4.7950 H   0  0  0  0  0  0  0  0  0  0  0  0
    4.7900   18.4330    3.7790 H   0  0  0  0  0  0  0  0  0  0  0  0
    6.7760   16.4140    4.9690 H   0  0  0  0  0  0  0  0  0  0  0  0
    6.3340   17.4510    2.0950 H   0  0  0  0  0  0  0  0  0  0  0  0
    7.4520   15.1300    2.4820 H   0  0  0  0  0  0  0  0  0  0  0  0
    9.8530   16.9210    3.2230 H   0  0  0  0  0  0  0  0  0  0  0  0
    9.4540   13.8500    3.3010 H   0  0  0  0  0  0  0  0  0  0  0  0
   11.8610   13.7300    3.7030 H   0  0  0  0  0  0  0  0  0  0  0  0
  1  6  2  0  0  0  0
  1 18  1  0  0  0  0
  2 42  1  1  0  0  0
  2 31  1  0  0  0  0
  3 14  1  0  0  0  0
  4 41  1  0  0  0  0
  4 15  1  0  0  0  0
  5 43  1  0  0  0  0
  5  2  1  0  0  0  0
  6 10  1  0  0  0  0
  7  2  1  0  0  0  0
  7 11  1  0  0  0  0
  8 45  1  0  0  0  0
  9 19  2  0  0  0  0
 10 51  1  0  0  0  0
 10 14  2  0  0  0  0
 11  4  1  0  0  0  0
 12 31  1  0  0  0  0
 13 11  2  0  0  0  0
 14 52  1  0  0  0  0
 15 47  1  1  0  0  0
 15 17  1  0  0  0  0
 17 49  1  0  0  0  0
 17  1  1  0  0  0  0
 18  3  2  0  0  0  0
 19  8  1  0  0  0  0
 19 15  1  0  0  0  0
 20  8  1  0  0  0  0
 20 73  1  0  0  0  0
 21 74  1  0  0  0  0
 21 20  1  0  0  0  0
 22 75  1  0  0  0  0
 22 21  1  0  0  0  0
 23 57  1  0  0  0  0
 23 22  1  0  0  0  0
 24 58  1  0  0  0  0
 24 23  1  0  0  0  0
 25 24  1  0  0  0  0
 25 78  1  0  0  0  0
 26 60  1  0  0  0  0
 26 25  1  0  0  0  0
 27 26  1  0  0  0  0
 27 28  1  0  0  0  0
 28 62  1  0  0  0  0
 29 28  1  0  0  0  0
 29 82  1  0  0  0  0
 29 30  1  0  0  0  0
 30 32  1  0  0  0  0
 31 65  1  1  0  0  0
 31 33  1  0  0  0  0
 32 12  1  0  0  0  0
 32 16  2  0  0  0  0
 33 66  1  0  0  0  0
 34 33  1  0  0  0  0
 34 35  2  0  0  0  0
 35 67  1  0  0  0  0
 36 35  1  0  0  0  0
 36 68  1  0  0  0  0
 37 36  2  0  0  0  0
 38 39  2  0  0  0  0
 38 37  1  0  0  0  0
 39 34  1  0  0  0  0
 40 39  1  0  0  0  0
 44  7  1  0  0  0  0
 46 12  1  0  0  0  0
 48 17  1  0  0  0  0
 50  6  1  0  0  0  0
 53 18  1  0  0  0  0
 54 20  1  0  0  0  0
 55 21  1  0  0  0  0
 56 22  1  0  0  0  0
 59 25  1  0  0  0  0
 61 27  1  0  0  0  0
 63 29  1  0  0  0  0
 64 30  1  0  0  0  0
 69 37  1  0  0  0  0
 70 38  1  0  0  0  0
 71 33  1  0  0  0  0
 72  7  1  0  0  0  0
 76 23  1  0  0  0  0
 77 24  1  0  0  0  0
 79 26  1  0  0  0  0
 80 27  1  0  0  0  0
 81 28  1  0  0  0  0
 83 30  1  0  0  0  0
M  END
>  <IC50_NM>
1.1

>  <number_of_rotatable_bonds>
4

>  <charge>
0

>  <lm5_entropy_jk>
18.43900937288166

$$$$
