4K77
 OpenBabel11252210453D

 34 36  0  0  0  0  0  0  0  0999 V2000
  -17.4480   27.5530   -1.3870 C   0  0  0  0  0  0  0  0  0  0  0  0
  -17.9760   26.2730   -1.3750 C   0  0  0  0  0  0  0  0  0  0  0  0
  -17.3000   25.2130   -0.7800 N   0  0  0  0  0  0  0  0  0  0  0  0
  -16.0770   25.2970   -0.1780 C   0  0  0  0  0  0  0  0  0  0  0  0
  -15.5490   24.2960    0.2740 O   0  0  0  0  0  0  0  0  0  0  0  0
  -15.4590   26.6810   -0.1250 C   0  0  0  0  0  0  0  0  0  0  0  0
  -16.1370   27.7620   -0.7240 C   0  0  0  0  0  0  0  0  0  0  0  0
  -15.5010   29.0250   -0.6500 C   0  0  0  0  0  0  0  0  0  0  0  0
  -14.3200   29.1920   -0.0240 N   0  0  0  0  0  0  0  0  0  0  0  0
  -13.7590   28.1020    0.5240 C   0  0  0  0  0  0  0  0  0  0  0  0
  -14.2650   26.8610    0.4950 N   0  0  0  0  0  0  0  0  0  0  0  0
  -16.0520   30.1580   -1.2370 N   0  0  0  0  0  0  0  0  0  0  0  0
  -15.4750   31.5030   -1.1670 C   0  0  0  0  0  0  0  0  0  0  0  0
  -14.4140   31.6590   -2.2680 C   0  0  0  0  0  0  0  0  0  0  0  0
  -13.7950   33.0740   -2.2460 C   0  0  0  0  0  0  0  0  0  0  0  0
  -14.8920   34.1420   -2.4470 C   0  0  0  0  0  0  0  0  0  0  0  0
  -16.0030   34.0090   -1.3830 C   0  0  0  0  0  0  0  0  0  0  0  0
  -16.5740   32.5630   -1.3680 C   0  0  0  0  0  0  0  0  0  0  0  0
  -18.0060   28.3420   -1.8840 H   0  0  0  0  0  0  0  0  0  0  0  0
  -18.9270   25.9960   -1.8260 H   0  0  0  0  0  0  0  0  0  0  0  0
  -17.7070   24.2790   -0.7260 H   0  0  0  0  0  0  0  0  0  0  0  0
  -12.8020   28.2340    1.0420 H   0  0  0  0  0  0  0  0  0  0  0  0
  -16.8390   30.0040   -1.8500 H   0  0  0  0  0  0  0  0  0  0  0  0
  -15.0150   31.6610   -0.1760 H   0  0  0  0  0  0  0  0  0  0  0  0
  -14.8820   31.4690   -3.2430 H   0  0  0  0  0  0  0  0  0  0  0  0
  -13.6420   30.8890   -2.1380 H   0  0  0  0  0  0  0  0  0  0  0  0
  -13.2880   33.2500   -1.2890 H   0  0  0  0  0  0  0  0  0  0  0  0
  -13.0300   33.1580   -3.0280 H   0  0  0  0  0  0  0  0  0  0  0  0
  -14.4620   35.1530   -2.4070 H   0  0  0  0  0  0  0  0  0  0  0  0
  -15.3330   34.0390   -3.4500 H   0  0  0  0  0  0  0  0  0  0  0  0
  -15.6110   34.2710   -0.3890 H   0  0  0  0  0  0  0  0  0  0  0  0
  -16.8120   34.7310   -1.5890 H   0  0  0  0  0  0  0  0  0  0  0  0
  -17.1150   32.3700   -2.3060 H   0  0  0  0  0  0  0  0  0  0  0  0
  -17.3130   32.4800   -0.5660 H   0  0  0  0  0  0  0  0  0  0  0  0
  1  2  2  0  0  0  0
  1  7  1  0  0  0  0
  2  3  1  0  0  0  0
  4  6  1  0  0  0  0
  4  3  1  0  0  0  0
  4  5  2  0  0  0  0
  6  7  1  0  0  0  0
  6 11  2  0  0  0  0
  7  8  2  0  0  0  0
  8  9  1  0  0  0  0
  8 12  1  0  0  0  0
 10  9  2  0  0  0  0
 10 11  1  0  0  0  0
 13 14  1  0  0  0  0
 13 18  1  0  0  0  0
 13 12  1  0  0  0  0
 14 15  1  0  0  0  0
 15 16  1  0  0  0  0
 16 17  1  0  0  0  0
 17 18  1  0  0  0  0
 19  1  1  0  0  0  0
 20  2  1  0  0  0  0
 21  3  1  0  0  0  0
 22 10  1  0  0  0  0
 23 12  1  0  0  0  0
 24 13  1  0  0  0  0
 25 14  1  0  0  0  0
 26 14  1  0  0  0  0
 27 15  1  0  0  0  0
 28 15  1  0  0  0  0
 29 16  1  0  0  0  0
 30 16  1  0  0  0  0
 31 17  1  0  0  0  0
 32 17  1  0  0  0  0
 33 18  1  0  0  0  0
 34 18  1  0  0  0  0
M  END
>  <charge>
0

>  <pKi>
6.63

>  <number_of_rotatable_bonds>
2

>  <lm5_entropy_jk>
17.80530520339831

$$$$
