4K77
 OpenBabel11252210453D

 34 36  0  0  0  0  0  0  0  0999 V2000
  -17.0170   28.0690   -0.8220 C   0  0  0  0  0  0  0  0  0  0  0  0
  -17.7090   26.9050   -1.1090 C   0  0  0  0  0  0  0  0  0  0  0  0
  -17.1910   25.6610   -0.7790 N   0  0  0  0  0  0  0  0  0  0  0  0
  -15.9460   25.4500   -0.2670 C   0  0  0  0  0  0  0  0  0  0  0  0
  -15.5790   24.3200   -0.0420 O   0  0  0  0  0  0  0  0  0  0  0  0
  -15.1030   26.6740    0.0030 C   0  0  0  0  0  0  0  0  0  0  0  0
  -15.6770   27.9370   -0.1890 C   0  0  0  0  0  0  0  0  0  0  0  0
  -14.8870   29.0380    0.2050 C   0  0  0  0  0  0  0  0  0  0  0  0
  -13.6130   28.9190    0.6050 N   0  0  0  0  0  0  0  0  0  0  0  0
  -13.1400   27.6670    0.7160 C   0  0  0  0  0  0  0  0  0  0  0  0
  -13.8300   26.5430    0.4630 N   0  0  0  0  0  0  0  0  0  0  0  0
  -15.4140   30.3080    0.2610 N   0  0  0  0  0  0  0  0  0  0  0  0
  -14.8970   31.3930   -0.5470 C   0  0  0  0  0  0  0  0  0  0  0  0
  -14.9460   30.9340   -2.0130 C   0  0  0  0  0  0  0  0  0  0  0  0
  -14.7200   32.0740   -3.0080 C   0  0  0  0  0  0  0  0  0  0  0  0
  -15.7140   33.2240   -2.7320 C   0  0  0  0  0  0  0  0  0  0  0  0
  -15.5170   33.7770   -1.3090 C   0  0  0  0  0  0  0  0  0  0  0  0
  -15.8010   32.6250   -0.3210 C   0  0  0  0  0  0  0  0  0  0  0  0
  -17.4390   29.0130   -1.1510 H   0  0  0  0  0  0  0  0  0  0  0  0
  -18.6700   26.8630   -1.6200 H   0  0  0  0  0  0  0  0  0  0  0  0
  -17.7120   24.7980   -0.9100 H   0  0  0  0  0  0  0  0  0  0  0  0
  -12.1140   27.5500    1.0810 H   0  0  0  0  0  0  0  0  0  0  0  0
  -16.4090   30.3030    0.3980 H   0  0  0  0  0  0  0  0  0  0  0  0
  -13.8590   31.6300   -0.2580 H   0  0  0  0  0  0  0  0  0  0  0  0
  -15.9290   30.4920   -2.2250 H   0  0  0  0  0  0  0  0  0  0  0  0
  -14.2160   30.1300   -2.1810 H   0  0  0  0  0  0  0  0  0  0  0  0
  -13.6820   32.4390   -2.9800 H   0  0  0  0  0  0  0  0  0  0  0  0
  -14.8930   31.6590   -4.0070 H   0  0  0  0  0  0  0  0  0  0  0  0
  -15.6320   34.0220   -3.4800 H   0  0  0  0  0  0  0  0  0  0  0  0
  -16.7430   32.8510   -2.8360 H   0  0  0  0  0  0  0  0  0  0  0  0
  -14.5040   34.1770   -1.1750 H   0  0  0  0  0  0  0  0  0  0  0  0
  -16.2070   34.6190   -1.1380 H   0  0  0  0  0  0  0  0  0  0  0  0
  -16.8410   32.3340   -0.4930 H   0  0  0  0  0  0  0  0  0  0  0  0
  -15.7310   32.9660    0.7190 H   0  0  0  0  0  0  0  0  0  0  0  0
  1  2  2  0  0  0  0
  1  7  1  0  0  0  0
  2  3  1  0  0  0  0
  4  6  1  0  0  0  0
  4  3  1  0  0  0  0
  4  5  2  0  0  0  0
  6  7  1  0  0  0  0
  6 11  2  0  0  0  0
  7  8  2  0  0  0  0
  8  9  1  0  0  0  0
  8 12  1  0  0  0  0
 10  9  2  0  0  0  0
 10 11  1  0  0  0  0
 13 14  1  0  0  0  0
 13 18  1  0  0  0  0
 13 12  1  0  0  0  0
 14 15  1  0  0  0  0
 15 16  1  0  0  0  0
 16 17  1  0  0  0  0
 17 18  1  0  0  0  0
 19  1  1  0  0  0  0
 20  2  1  0  0  0  0
 21  3  1  0  0  0  0
 22 10  1  0  0  0  0
 23 12  1  0  0  0  0
 24 13  1  0  0  0  0
 25 14  1  0  0  0  0
 26 14  1  0  0  0  0
 27 15  1  0  0  0  0
 28 15  1  0  0  0  0
 29 16  1  0  0  0  0
 30 16  1  0  0  0  0
 31 17  1  0  0  0  0
 32 17  1  0  0  0  0
 33 18  1  0  0  0  0
 34 18  1  0  0  0  0
M  END
>  <charge>
0

>  <pKi>
6.63

>  <number_of_rotatable_bonds>
2

>  <lm5_entropy_jk>
17.80530520339831

$$$$
