1J91
 OpenBabel11252210453D

 14 15  0  0  1  0  0  0  0  0999 V2000
   22.0790    8.2000   19.0900 C   0  0  0  0  0  0  0  0  0  0  0  0
   24.2520    7.8400   15.0920 N   0  0  0  0  0  0  0  0  0  0  0  0
   22.7780    6.9670   19.2920 C   0  0  0  0  0  0  0  0  0  0  0  0
   23.5710    6.4170   18.2980 C   0  0  0  0  0  0  0  0  0  0  0  0
   22.2270    8.9320   17.9240 C   0  0  0  0  0  0  0  0  0  0  0  0
   23.4480    8.8220   15.6410 N   0  0  0  0  0  0  0  0  0  0  0  0
   23.0660    8.4080   16.9220 C   0  0  0  0  0  0  0  0  0  0  0  0
   23.7040    7.1300   17.0930 C   0  0  0  0  0  0  0  0  0  0  0  0
   24.4060    6.8480   15.8980 N   0  0  0  0  0  0  0  0  0  0  0  0
   21.4050   10.5930   17.5750 Br  0  0  0  0  0  0  0  0  0  0  0  0
   20.9090    8.8260   20.4470 Br  0  0  0  0  0  0  0  0  0  0  0  0
   22.6160    6.0820   20.9610 Br  0  0  0  0  0  0  0  0  0  0  0  0
   24.4590    4.7590   18.4140 Br  0  0  0  0  0  0  0  0  0  0  0  0
   23.3170    9.7400   15.1990 H   0  0  0  0  0  0  0  0  0  0  0  0
  1  3  2  0  0  0  0
  1  5  1  0  0  0  0
  1 11  1  0  0  0  0
  3  4  1  0  0  0  0
  3 12  1  0  0  0  0
  4  8  2  0  0  0  0
  4 13  1  0  0  0  0
  5  7  2  0  0  0  0
  5 10  1  0  0  0  0
  6  2  1  0  0  0  0
  6  7  1  0  0  0  0
  6 14  1  0  0  0  0
  7  8  1  0  0  0  0
  8  9  1  0  0  0  0
  9  2  2  0  0  0  0
M  END
>  <charge>
0

>  <Ki_NM>
400

>  <number_of_rotatable_bonds>
0

>  <lm5_entropy_jk>
7.2278

$$$$
