3rk5.pdb
 OpenBabel11252210453D

 35 37  0  0  1  0  0  0  0  0999 V2000
   64.1860  154.7140  -48.4310 N   0  0  0  0  0  0  0  0  0  0  0  0
   65.7180  154.4260  -50.2160 N   0  0  0  0  0  0  0  0  0  0  0  0
   67.2910  153.5610  -51.8120 N   0  0  0  0  0  0  0  0  0  0  0  0
   70.3180  149.7820  -47.1170 N   0  0  0  0  0  0  0  0  0  0  0  0
   63.7160  154.7390  -47.0610 C   0  0  0  0  0  0  0  0  0  0  0  0
   65.3090  154.1530  -48.9340 C   0  0  0  0  0  0  0  0  0  0  0  0
   66.8150  153.6030  -50.5340 C   0  0  0  0  0  0  0  0  0  0  0  0
   67.3250  152.7800  -49.4910 C   0  0  0  0  0  0  0  0  0  0  0  0
   68.3920  151.8540  -49.6160 C   0  0  0  0  0  0  0  0  0  0  0  0
   68.6540  150.8850  -48.4980 C   0  0  0  0  0  0  0  0  0  0  0  0
   67.6530  150.0570  -47.9800 C   0  0  0  0  0  0  0  0  0  0  0  0
   67.9970  149.0940  -47.0270 C   0  0  0  0  0  0  0  0  0  0  0  0
   69.3370  148.9670  -46.6360 C   0  0  0  0  0  0  0  0  0  0  0  0
   69.9740  150.7280  -48.0260 C   0  0  0  0  0  0  0  0  0  0  0  0
   63.2250  155.9780  -46.6060 C   0  0  0  0  0  0  0  0  0  0  0  0
   62.7270  156.0890  -45.3100 C   0  0  0  0  0  0  0  0  0  0  0  0
   62.6820  154.9690  -44.4650 C   0  0  0  0  0  0  0  0  0  0  0  0
   63.1400  153.7370  -44.9440 C   0  0  0  0  0  0  0  0  0  0  0  0
   63.6610  153.6090  -46.2420 C   0  0  0  0  0  0  0  0  0  0  0  0
   62.1140  155.1330  -43.0370 C   0  0  0  0  0  0  0  0  0  0  0  0
   69.1170  151.7830  -50.6100 O   0  0  0  0  0  0  0  0  0  0  0  0
   60.9430  155.5430  -42.9450 O   0  0  0  0  0  0  0  0  0  0  0  0
   62.8680  154.8690  -42.0850 O   0  5  0  0  0  0  0  0  0  0  0  0
   66.3590  152.9270  -48.0630 S   0  0  0  0  0  0  0  0  0  0  0  0
   63.6320  155.3290  -49.0800 H   0  0  0  0  0  0  0  0  0  0  0  0
   66.9520  154.2120  -52.5430 H   0  0  0  0  0  0  0  0  0  0  0  0
   68.1390  153.0170  -52.0150 H   0  0  0  0  0  0  0  0  0  0  0  0
   66.6130  150.1330  -48.3090 H   0  0  0  0  0  0  0  0  0  0  0  0
   67.2370  148.4400  -46.5920 H   0  0  0  0  0  0  0  0  0  0  0  0
   69.6360  148.1870  -45.9190 H   0  0  0  0  0  0  0  0  0  0  0  0
   70.7810  151.3810  -48.3920 H   0  0  0  0  0  0  0  0  0  0  0  0
   63.2120  156.8370  -47.2770 H   0  0  0  0  0  0  0  0  0  0  0  0
   62.3660  157.0690  -44.9800 H   0  0  0  0  0  0  0  0  0  0  0  0
   63.1050  152.8380  -44.3210 H   0  0  0  0  0  0  0  0  0  0  0  0
   63.9960  152.6340  -46.6020 H   0  0  0  0  0  0  0  0  0  0  0  0
  1  5  1  0  0  0  0
  1  6  1  0  0  0  0
  1 25  1  0  0  0  0
  2  6  2  0  0  0  0
  2  7  1  0  0  0  0
  3  7  1  0  0  0  0
  3 26  1  0  0  0  0
  3 27  1  0  0  0  0
  4 13  2  0  0  0  0
  4 14  1  0  0  0  0
  5 15  2  0  0  0  0
  5 19  1  0  0  0  0
  6 24  1  0  0  0  0
  7  8  2  0  0  0  0
  8 24  1  0  0  0  0
  9  8  1  0  0  0  0
  9 10  1  0  0  0  0
  9 21  2  0  0  0  0
 10 11  1  0  0  0  0
 10 14  2  0  0  0  0
 11 12  2  0  0  0  0
 11 28  1  0  0  0  0
 12 13  1  0  0  0  0
 12 29  1  0  0  0  0
 13 30  1  0  0  0  0
 14 31  1  0  0  0  0
 15 16  1  0  0  0  0
 15 32  1  0  0  0  0
 16 17  2  0  0  0  0
 16 33  1  0  0  0  0
 17 18  1  0  0  0  0
 17 20  1  0  0  0  0
 18 19  2  0  0  0  0
 18 34  1  0  0  0  0
 19 35  1  0  0  0  0
 20 22  2  0  0  0  0
 20 23  1  0  0  0  0
M  CHG  1  23  -1
M  END
>  <lm5_entropy_jk>
20.582349174783765

>  <number_of_rotatable_bonds>
5

>  <IC50_NM>
4000

>  <charge>
-1

$$$$
