5QDA
 OpenBabel11252210453D

 79 82  0  0  1  0  0  0  0  0999 V2000
   30.3610    5.7230   15.9010 N   0  0  0  0  0  0  0  0  0  0  0  0
   31.5000    5.9880   14.9970 C   0  0  1  0  0  0  0  0  0  0  0  0
   32.5770    6.8770   15.6530 C   0  0  0  0  0  0  0  0  0  0  0  0
   32.0220    8.1850   16.1530 C   0  0  0  0  0  0  0  0  0  0  0  0
   31.9440    8.4060   17.5350 C   0  0  0  0  0  0  0  0  0  0  0  0
   31.4890    9.6290   18.0430 C   0  0  0  0  0  0  0  0  0  0  0  0
   31.0470   10.6170   17.1440 C   0  0  0  0  0  0  0  0  0  0  0  0
   31.0970   10.3860   15.7690 C   0  0  0  0  0  0  0  0  0  0  0  0
   31.6040    9.1840   15.2650 C   0  0  0  0  0  0  0  0  0  0  0  0
   31.5310    9.9360   19.5170 C   0  0  0  0  0  0  0  0  0  0  0  0
   31.1340    8.7860   20.4510 C   0  0  0  0  0  0  0  0  0  0  0  0
   29.6230    8.5200   20.3980 C   0  0  0  0  0  0  0  0  0  0  0  0
   29.3270    7.0550   20.7590 C   0  0  0  0  0  0  0  0  0  0  0  0
   27.9390    6.6390   20.4280 N   0  0  0  0  0  0  0  0  0  0  0  0
   27.5670    6.4910   19.0890 C   0  0  0  0  0  0  0  0  0  0  0  0
   26.2210    6.2440   18.8800 N   0  0  0  0  0  0  0  0  0  0  0  0
   25.8510    5.8480   17.6270 C   0  0  0  0  0  0  0  0  0  0  0  0
   26.7410    5.6960   16.5380 C   0  0  0  0  0  0  0  0  0  0  0  0
   28.0690    6.0620   16.7560 C   0  0  0  0  0  0  0  0  0  0  0  0
   28.4940    6.4760   18.0130 C   0  0  0  0  0  0  0  0  0  0  0  0
   29.0360    6.0850   15.5940 C   0  0  0  0  0  0  0  0  0  0  0  0
   28.7030    6.3480   14.4490 O   0  0  0  0  0  0  0  0  0  0  0  0
   24.5020    5.6420   17.6200 O   0  0  0  0  0  0  0  0  0  0  0  0
   23.8820    5.2580   16.3600 C   0  0  0  0  0  0  0  0  0  0  0  0
   32.1140    4.5920   14.6560 C   0  0  2  0  0  0  0  0  0  0  0  0
   33.2120    4.7330   13.7370 O   0  0  0  0  0  0  0  0  0  0  0  0
   31.0940    3.7340   13.8840 C   0  0  0  0  0  0  0  0  0  0  0  0
   31.7650    2.4360   13.4480 N   0  3  0  0  0  0  0  0  0  0  0  0
   30.9570    1.7120   12.3650 C   0  0  0  0  0  0  0  0  0  0  0  0
   30.8340    2.5140   11.0910 C   0  0  0  0  0  0  0  0  0  0  0  0
   31.9600    3.0670   10.4690 C   0  0  0  0  0  0  0  0  0  0  0  0
   31.8560    3.7330    9.2400 C   0  0  0  0  0  0  0  0  0  0  0  0
   30.5900    3.8650    8.6480 C   0  0  0  0  0  0  0  0  0  0  0  0
   29.4600    3.3340    9.2740 C   0  0  0  0  0  0  0  0  0  0  0  0
   29.5750    2.6570   10.4930 C   0  0  0  0  0  0  0  0  0  0  0  0
   33.0970    4.3010    8.5730 C   0  0  0  0  0  0  0  0  0  0  0  0
   33.6510    5.4580    9.4170 C   0  0  0  0  0  0  0  0  0  0  0  0
   34.1560    3.2100    8.3540 C   0  0  0  0  0  0  0  0  0  0  0  0
   30.6530    5.5680   16.8870 H   0  0  0  0  0  0  0  0  0  0  0  0
   31.1480    6.4790   14.0580 H   0  0  0  0  0  0  0  0  0  0  0  0
   33.0500    6.3120   16.4960 H   0  0  0  0  0  0  0  0  0  0  0  0
   33.3800    7.0690   14.8950 H   0  0  0  0  0  0  0  0  0  0  0  0
   32.2550    7.6130   18.2100 H   0  0  0  0  0  0  0  0  0  0  0  0
   30.6840   11.5760   17.5210 H   0  0  0  0  0  0  0  0  0  0  0  0
   30.7470   11.1560   15.0770 H   0  0  0  0  0  0  0  0  0  0  0  0
   31.6970    9.0310   14.1930 H   0  0  0  0  0  0  0  0  0  0  0  0
   32.5780   10.2330   19.7700 H   0  0  0  0  0  0  0  0  0  0  0  0
   30.8660   10.8040   19.7320 H   0  0  0  0  0  0  0  0  0  0  0  0
   31.7010    7.8670   20.1690 H   0  0  0  0  0  0  0  0  0  0  0  0
   31.4290    9.0560   21.4910 H   0  0  0  0  0  0  0  0  0  0  0  0
   29.0930    9.2020   21.1030 H   0  0  0  0  0  0  0  0  0  0  0  0
   29.2560    8.7400   19.3660 H   0  0  0  0  0  0  0  0  0  0  0  0
   30.0500    6.3850   20.2240 H   0  0  0  0  0  0  0  0  0  0  0  0
   29.4730    6.9160   21.8650 H   0  0  0  0  0  0  0  0  0  0  0  0
   27.2360    7.0480   21.0620 H   0  0  0  0  0  0  0  0  0  0  0  0
   26.4190    5.2920   15.5850 H   0  0  0  0  0  0  0  0  0  0  0  0
   29.5270    6.7930   18.1720 H   0  0  0  0  0  0  0  0  0  0  0  0
   32.4860    4.0870   15.5780 H   0  0  0  0  0  0  0  0  0  0  0  0
   30.2090    3.4970   14.5430 H   0  0  0  0  0  0  0  0  0  0  0  0
   30.7490    4.2830   12.9630 H   0  0  0  0  0  0  0  0  0  0  0  0
   31.8530    1.8150   14.3040 H   0  0  0  0  0  0  0  0  0  0  0  0
   32.7440    2.6710   13.0690 H   0  0  0  0  0  0  0  0  0  0  0  0
   29.9340    1.4860   12.7900 H   0  0  0  0  0  0  0  0  0  0  0  0
   31.4710    0.7320   12.1400 H   0  0  0  0  0  0  0  0  0  0  0  0
   32.9360    3.0090   10.9430 H   0  0  0  0  0  0  0  0  0  0  0  0
   30.4830    4.3940    7.6950 H   0  0  0  0  0  0  0  0  0  0  0  0
   28.4730    3.4380    8.8100 H   0  0  0  0  0  0  0  0  0  0  0  0
   28.6860    2.2390   10.9730 H   0  0  0  0  0  0  0  0  0  0  0  0
   32.8130    4.7150    7.5670 H   0  0  0  0  0  0  0  0  0  0  0  0
   22.8030    5.2070   16.6550 H   0  0  0  0  0  0  0  0  0  0  0  0
   24.0460    6.0440   15.5920 H   0  0  0  0  0  0  0  0  0  0  0  0
   24.2560    4.2630   16.0400 H   0  0  0  0  0  0  0  0  0  0  0  0
   32.9770    6.3400    9.3330 H   0  0  0  0  0  0  0  0  0  0  0  0
   33.7290    5.1680   10.4840 H   0  0  0  0  0  0  0  0  0  0  0  0
   34.6620    5.7420    9.0530 H   0  0  0  0  0  0  0  0  0  0  0  0
   35.0510    3.6520    7.8530 H   0  0  0  0  0  0  0  0  0  0  0  0
   33.7570    2.4040    7.7010 H   0  0  0  0  0  0  0  0  0  0  0  0
   34.4820    2.7700    9.3200 H   0  0  0  0  0  0  0  0  0  0  0  0
   34.0790    4.8970   14.2930 H   0  0  0  0  0  0  0  0  0  0  0  0
  1  2  1  0  0  0  0
  1 21  1  0  0  0  0
  2  3  1  0  0  0  0
  2 25  1  0  0  0  0
  2 40  1  6  0  0  0
  3  4  1  0  0  0  0
  4  5  2  0  0  0  0
  4  9  1  0  0  0  0
  5  6  1  0  0  0  0
  6  7  2  0  0  0  0
  6 10  1  0  0  0  0
  7  8  1  0  0  0  0
  8  9  2  0  0  0  0
 10 11  1  0  0  0  0
 11 12  1  0  0  0  0
 12 13  1  0  0  0  0
 13 14  1  0  0  0  0
 14 15  1  0  0  0  0
 15 16  2  0  0  0  0
 15 20  1  0  0  0  0
 16 17  1  0  0  0  0
 17 18  2  0  0  0  0
 17 23  1  0  0  0  0
 18 19  1  0  0  0  0
 19 20  2  0  0  0  0
 19 21  1  0  0  0  0
 21 22  2  0  0  0  0
 23 24  1  0  0  0  0
 25 26  1  0  0  0  0
 25 27  1  0  0  0  0
 25 58  1  1  0  0  0
 27 28  1  0  0  0  0
 28 29  1  0  0  0  0
 29 30  1  0  0  0  0
 30 31  2  0  0  0  0
 30 35  1  0  0  0  0
 31 32  1  0  0  0  0
 32 33  2  0  0  0  0
 32 36  1  0  0  0  0
 33 34  1  0  0  0  0
 34 35  2  0  0  0  0
 36 37  1  0  0  0  0
 36 38  1  0  0  0  0
 39  1  1  0  0  0  0
 41  3  1  0  0  0  0
 42  3  1  0  0  0  0
 43  5  1  0  0  0  0
 44  7  1  0  0  0  0
 45  8  1  0  0  0  0
 46  9  1  0  0  0  0
 47 10  1  0  0  0  0
 48 10  1  0  0  0  0
 49 11  1  0  0  0  0
 50 11  1  0  0  0  0
 51 12  1  0  0  0  0
 52 12  1  0  0  0  0
 53 13  1  0  0  0  0
 54 13  1  0  0  0  0
 55 14  1  0  0  0  0
 56 18  1  0  0  0  0
 57 20  1  0  0  0  0
 59 27  1  0  0  0  0
 60 27  1  0  0  0  0
 61 28  1  0  0  0  0
 62 28  1  0  0  0  0
 63 29  1  0  0  0  0
 64 29  1  0  0  0  0
 65 31  1  0  0  0  0
 66 33  1  0  0  0  0
 67 34  1  0  0  0  0
 68 35  1  0  0  0  0
 69 36  1  0  0  0  0
 70 24  1  0  0  0  0
 71 24  1  0  0  0  0
 72 24  1  0  0  0  0
 73 37  1  0  0  0  0
 74 37  1  0  0  0  0
 75 37  1  0  0  0  0
 76 38  1  0  0  0  0
 77 38  1  0  0  0  0
 78 38  1  0  0  0  0
 79 26  1  0  0  0  0
M  CHG  1  28   1
M  END
>  <IC50_NM>
7.8

>  <number_of_rotatable_bonds>
7

>  <lm5_entropy_jk>
39.3856002100702

>  <charge>
1

>  <old_name>
BACE_12

>  <xray_resolution>
2.1

$$$$
