6RLY
 OpenBabel11252210453D

 46 48  0  0  0  0  0  0  0  0999 V2000
    7.9980   29.2670    4.7370 N   0  0  0  0  0  0  0  0  0  0  0  0
    7.7570   28.2820    3.6200 C   0  0  0  0  0  0  0  0  0  0  0  0
    1.5380   22.3320    7.3180 C   0  0  0  0  0  0  0  0  0  0  0  0
    0.2480   22.2480    7.8690 C   0  0  0  0  0  0  0  0  0  0  0  0
   -0.8090   22.9660    7.2950 C   0  0  0  0  0  0  0  0  0  0  0  0
   -0.5760   23.7570    6.1640 C   0  0  0  0  0  0  0  0  0  0  0  0
    0.7080   23.8160    5.5970 C   0  0  0  0  0  0  0  0  0  0  0  0
    1.8030   23.1020    6.1530 C   0  0  0  0  0  0  0  0  0  0  0  0
    3.2090   23.2320    5.6050 C   0  0  0  0  0  0  0  0  0  0  0  0
    4.2210   22.2970    5.9380 C   0  0  0  0  0  0  0  0  0  0  0  0
    5.5650   22.5220    5.5910 C   0  0  0  0  0  0  0  0  0  0  0  0
    5.9470   23.6660    4.8840 C   0  0  0  0  0  0  0  0  0  0  0  0
    4.9540   24.5670    4.4800 C   0  0  0  0  0  0  0  0  0  0  0  0
    3.6040   24.3440    4.8160 C   0  0  0  0  0  0  0  0  0  0  0  0
    7.4370   23.9220    4.6730 C   0  0  0  0  0  0  0  0  0  0  0  0
    7.8830   24.4530    3.2920 C   0  0  0  0  0  0  0  0  0  0  0  0
    8.1540   31.1390    6.8700 C   0  0  0  0  0  0  0  0  0  0  0  0
    7.6610   29.8020    7.0900 C   0  0  0  0  0  0  0  0  0  0  0  0
    7.6150   28.9110    6.0330 C   0  0  0  0  0  0  0  0  0  0  0  0
    8.4800   30.5440    4.4370 C   0  0  0  0  0  0  0  0  0  0  0  0
    8.5560   31.4770    5.5980 C   0  0  0  0  0  0  0  0  0  0  0  0
    8.2570   26.8770    3.8820 C   0  0  0  0  0  0  0  0  0  0  0  0
    9.1500   26.6100    4.6600 O   0  0  0  0  0  0  0  0  0  0  0  0
    7.6250   25.9090    3.1510 N   0  0  0  0  0  0  0  0  0  0  0  0
    8.8040   30.8830    3.3030 O   0  0  0  0  0  0  0  0  0  0  0  0
    9.0430   32.7060    5.2940 O   0  0  0  0  0  0  0  0  0  0  0  0
    6.6870   28.2290    3.3970 H   0  0  0  0  0  0  0  0  0  0  0  0
    8.2630   28.6010    2.7010 H   0  0  0  0  0  0  0  0  0  0  0  0
    2.3430   21.8080    7.8220 H   0  0  0  0  0  0  0  0  0  0  0  0
    0.0700   21.6510    8.7630 H   0  0  0  0  0  0  0  0  0  0  0  0
   -1.8050   22.9170    7.7350 H   0  0  0  0  0  0  0  0  0  0  0  0
   -1.3930   24.3250    5.7210 H   0  0  0  0  0  0  0  0  0  0  0  0
    0.8450   24.4160    4.7030 H   0  0  0  0  0  0  0  0  0  0  0  0
    3.9650   21.3940    6.4840 H   0  0  0  0  0  0  0  0  0  0  0  0
    6.3270   21.8180    5.8970 H   0  0  0  0  0  0  0  0  0  0  0  0
    5.2250   25.4640    3.9360 H   0  0  0  0  0  0  0  0  0  0  0  0
    2.8650   25.0730    4.5020 H   0  0  0  0  0  0  0  0  0  0  0  0
    7.7890   24.6140    5.4410 H   0  0  0  0  0  0  0  0  0  0  0  0
    7.9790   22.9820    4.8420 H   0  0  0  0  0  0  0  0  0  0  0  0
    8.9630   24.2670    3.1580 H   0  0  0  0  0  0  0  0  0  0  0  0
    7.3820   23.8740    2.5040 H   0  0  0  0  0  0  0  0  0  0  0  0
    8.2110   31.8600    7.6820 H   0  0  0  0  0  0  0  0  0  0  0  0
    7.3470   29.4960    8.0880 H   0  0  0  0  0  0  0  0  0  0  0  0
    7.2850   27.8800    6.1280 H   0  0  0  0  0  0  0  0  0  0  0  0
    6.9330   26.2390    2.4900 H   0  0  0  0  0  0  0  0  0  0  0  0
    9.2080   32.6760    4.3240 H   0  0  0  0  0  0  0  0  0  0  0  0
  1 20  1  0  0  0  0
  1  2  1  0  0  0  0
  1 19  1  0  0  0  0
  2 22  1  0  0  0  0
  2 27  1  0  0  0  0
  2 28  1  0  0  0  0
  3  8  2  0  0  0  0
  3  4  1  0  0  0  0
  3 29  1  0  0  0  0
  4  5  2  0  0  0  0
  4 30  1  0  0  0  0
  5  6  1  0  0  0  0
  5 31  1  0  0  0  0
  6  7  2  0  0  0  0
  6 32  1  0  0  0  0
  7  8  1  0  0  0  0
  7 33  1  0  0  0  0
  8  9  1  0  0  0  0
  9 14  2  0  0  0  0
  9 10  1  0  0  0  0
 10 11  2  0  0  0  0
 10 34  1  0  0  0  0
 11 12  1  0  0  0  0
 11 35  1  0  0  0  0
 12 13  2  0  0  0  0
 12 15  1  0  0  0  0
 13 14  1  0  0  0  0
 13 36  1  0  0  0  0
 14 37  1  0  0  0  0
 15 16  1  0  0  0  0
 15 38  1  0  0  0  0
 15 39  1  0  0  0  0
 16 24  1  0  0  0  0
 16 40  1  0  0  0  0
 16 41  1  0  0  0  0
 17 21  2  0  0  0  0
 17 18  1  0  0  0  0
 17 42  1  0  0  0  0
 18 19  2  0  0  0  0
 18 43  1  0  0  0  0
 19 44  1  0  0  0  0
 20 25  2  0  0  0  0
 20 21  1  0  0  0  0
 21 26  1  0  0  0  0
 22 24  1  0  0  0  0
 22 23  2  0  0  0  0
 24 45  1  0  0  0  0
 26 46  1  0  0  0  0
M  END
>  <COMPND>
6rly.pdb

>  <AUTHOR>
GENERATED BY OPEN BABEL 2.3.1

>  <MASTER>
0    0    0    0    0    0    0    0   46    0   46    0

>  <lm5_entropy_jk>
25.46788887432381

>  <number_of_rotatable_bonds>
7

>  <deltaG_kcalmol>
-6.50

>  <charge>
0

$$$$
