6RLY
 OpenBabel11252210453D

 46 48  0  0  0  0  0  0  0  0999 V2000
    7.9390   29.1600    5.1020 N   0  0  0  0  0  0  0  0  0  0  0  0
    7.6750   28.2160    3.9550 C   0  0  0  0  0  0  0  0  0  0  0  0
    1.3600   22.6630    8.2360 C   0  0  0  0  0  0  0  0  0  0  0  0
    0.0370   22.5270    8.6890 C   0  0  0  0  0  0  0  0  0  0  0  0
   -1.0310   22.9160    7.8680 C   0  0  0  0  0  0  0  0  0  0  0  0
   -0.7750   23.4370    6.5920 C   0  0  0  0  0  0  0  0  0  0  0  0
    0.5470   23.5540    6.1320 C   0  0  0  0  0  0  0  0  0  0  0  0
    1.6440   23.1710    6.9420 C   0  0  0  0  0  0  0  0  0  0  0  0
    3.0600   23.3500    6.4770 C   0  0  0  0  0  0  0  0  0  0  0  0
    4.0930   22.4920    6.9270 C   0  0  0  0  0  0  0  0  0  0  0  0
    5.4340   22.7290    6.5770 C   0  0  0  0  0  0  0  0  0  0  0  0
    5.7800   23.8000    5.7440 C   0  0  0  0  0  0  0  0  0  0  0  0
    4.7660   24.6410    5.2650 C   0  0  0  0  0  0  0  0  0  0  0  0
    3.4240   24.4190    5.6220 C   0  0  0  0  0  0  0  0  0  0  0  0
    7.2500   24.0510    5.4370 C   0  0  0  0  0  0  0  0  0  0  0  0
    7.5770   24.3780    3.9580 C   0  0  0  0  0  0  0  0  0  0  0  0
    8.1720   30.9250    7.3180 C   0  0  0  0  0  0  0  0  0  0  0  0
    7.7730   29.5530    7.5020 C   0  0  0  0  0  0  0  0  0  0  0  0
    7.6760   28.7190    6.4030 C   0  0  0  0  0  0  0  0  0  0  0  0
    8.3320   30.4750    4.8370 C   0  0  0  0  0  0  0  0  0  0  0  0
    8.4440   31.3520    6.0380 C   0  0  0  0  0  0  0  0  0  0  0  0
    8.1900   26.8080    4.1660 C   0  0  0  0  0  0  0  0  0  0  0  0
    9.2340   26.5590    4.7360 O   0  0  0  0  0  0  0  0  0  0  0  0
    7.3760   25.8210    3.6770 N   0  0  0  0  0  0  0  0  0  0  0  0
    8.5550   30.8860    3.7030 O   0  0  0  0  0  0  0  0  0  0  0  0
    8.8290   32.6230    5.7660 O   0  0  0  0  0  0  0  0  0  0  0  0
    6.6010   28.1700    3.7510 H   0  0  0  0  0  0  0  0  0  0  0  0
    8.1620   28.5670    3.0370 H   0  0  0  0  0  0  0  0  0  0  0  0
    2.1750   22.4000    8.9050 H   0  0  0  0  0  0  0  0  0  0  0  0
   -0.1640   22.1530    9.6920 H   0  0  0  0  0  0  0  0  0  0  0  0
   -2.0560   22.8330    8.2300 H   0  0  0  0  0  0  0  0  0  0  0  0
   -1.6010   23.7610    5.9630 H   0  0  0  0  0  0  0  0  0  0  0  0
    0.7230   23.9430    5.1300 H   0  0  0  0  0  0  0  0  0  0  0  0
    3.8540   21.6500    7.5710 H   0  0  0  0  0  0  0  0  0  0  0  0
    6.2130   22.0970    6.9890 H   0  0  0  0  0  0  0  0  0  0  0  0
    5.0120   25.4890    4.6360 H   0  0  0  0  0  0  0  0  0  0  0  0
    2.6620   25.1070    5.2590 H   0  0  0  0  0  0  0  0  0  0  0  0
    7.6250   24.8490    6.0870 H   0  0  0  0  0  0  0  0  0  0  0  0
    7.8220   23.1560    5.7070 H   0  0  0  0  0  0  0  0  0  0  0  0
    8.6270   24.1150    3.7360 H   0  0  0  0  0  0  0  0  0  0  0  0
    6.9600   23.7510    3.2950 H   0  0  0  0  0  0  0  0  0  0  0  0
    8.2570   31.6050    8.1630 H   0  0  0  0  0  0  0  0  0  0  0  0
    7.5600   29.1790    8.5030 H   0  0  0  0  0  0  0  0  0  0  0  0
    7.3930   27.6730    6.4660 H   0  0  0  0  0  0  0  0  0  0  0  0
    6.5390   26.1240    3.1930 H   0  0  0  0  0  0  0  0  0  0  0  0
    8.9140   32.6530    4.7860 H   0  0  0  0  0  0  0  0  0  0  0  0
  1 20  1  0  0  0  0
  1  2  1  0  0  0  0
  1 19  1  0  0  0  0
  2 22  1  0  0  0  0
  2 27  1  0  0  0  0
  2 28  1  0  0  0  0
  3  8  2  0  0  0  0
  3  4  1  0  0  0  0
  3 29  1  0  0  0  0
  4  5  2  0  0  0  0
  4 30  1  0  0  0  0
  5  6  1  0  0  0  0
  5 31  1  0  0  0  0
  6  7  2  0  0  0  0
  6 32  1  0  0  0  0
  7  8  1  0  0  0  0
  7 33  1  0  0  0  0
  8  9  1  0  0  0  0
  9 14  2  0  0  0  0
  9 10  1  0  0  0  0
 10 11  2  0  0  0  0
 10 34  1  0  0  0  0
 11 12  1  0  0  0  0
 11 35  1  0  0  0  0
 12 13  2  0  0  0  0
 12 15  1  0  0  0  0
 13 14  1  0  0  0  0
 13 36  1  0  0  0  0
 14 37  1  0  0  0  0
 15 16  1  0  0  0  0
 15 38  1  0  0  0  0
 15 39  1  0  0  0  0
 16 24  1  0  0  0  0
 16 40  1  0  0  0  0
 16 41  1  0  0  0  0
 17 21  2  0  0  0  0
 17 18  1  0  0  0  0
 17 42  1  0  0  0  0
 18 19  2  0  0  0  0
 18 43  1  0  0  0  0
 19 44  1  0  0  0  0
 20 25  2  0  0  0  0
 20 21  1  0  0  0  0
 21 26  1  0  0  0  0
 22 24  1  0  0  0  0
 22 23  2  0  0  0  0
 24 45  1  0  0  0  0
 26 46  1  0  0  0  0
M  END
>  <COMPND>
6rly.pdb

>  <AUTHOR>
GENERATED BY OPEN BABEL 2.3.1

>  <MASTER>
0    0    0    0    0    0    0    0   46    0   46    0

>  <lm5_entropy_jk>
25.46788887432381

>  <number_of_rotatable_bonds>
7

>  <deltaG_kcalmol>
-6.50

>  <charge>
0

$$$$
