5QCV
 OpenBabel11252210453D

 81 83  0  0  1  0  0  0  0  0999 V2000
   28.1100    6.8170   17.6400 N   0  0  0  0  0  0  0  0  0  0  0  0
   28.0250    5.6790   16.6900 C   0  0  2  0  0  0  0  0  0  0  0  0
   29.0150    5.8880   15.5100 C   0  0  0  0  0  0  0  0  0  0  0  0
   30.3680    5.7020   15.8380 N   0  0  0  0  0  0  0  0  0  0  0  0
   31.4650    5.9190   14.8690 C   0  0  1  0  0  0  0  0  0  0  0  0
   32.5790    6.8350   15.4120 C   0  0  0  0  0  0  0  0  0  0  0  0
   32.0370    8.1540   15.8850 C   0  0  0  0  0  0  0  0  0  0  0  0
   31.9880    8.3940   17.2580 C   0  0  0  0  0  0  0  0  0  0  0  0
   31.4580    9.6130   17.7110 C   0  0  0  0  0  0  0  0  0  0  0  0
   30.9310   10.5730   16.8340 C   0  0  0  0  0  0  0  0  0  0  0  0
   30.9860   10.3030   15.4650 C   0  0  0  0  0  0  0  0  0  0  0  0
   31.5490    9.1170   14.9880 C   0  0  0  0  0  0  0  0  0  0  0  0
   31.5400    9.7530   19.0690 O   0  0  0  0  0  0  0  0  0  0  0  0
   30.4510   10.4550   19.7530 C   0  0  0  0  0  0  0  0  0  0  0  0
   30.6100    9.8980   21.1680 C   0  0  0  0  0  0  0  0  0  0  0  0
   29.4930    8.9230   21.5600 C   0  0  0  0  0  0  0  0  0  0  0  0
   29.3170    7.7740   20.5480 C   0  0  0  0  0  0  0  0  0  0  0  0
   27.8960    7.7760   19.9580 C   0  0  0  0  0  0  0  0  0  0  0  0
   27.7500    6.6190   18.9960 C   0  0  0  0  0  0  0  0  0  0  0  0
   27.4190    5.5080   19.3930 O   0  0  0  0  0  0  0  0  0  0  0  0
   32.0810    4.5150   14.5650 C   0  0  2  0  0  0  0  0  0  0  0  0
   33.2160    4.6400   13.6870 O   0  0  0  0  0  0  0  0  0  0  0  0
   31.0920    3.6510   13.7610 C   0  0  0  0  0  0  0  0  0  0  0  0
   31.7890    2.3610   13.3420 N   0  3  0  0  0  0  0  0  0  0  0  0
   31.0180    1.6240   12.2420 C   0  0  0  0  0  0  0  0  0  0  0  0
   30.9090    2.4180   10.9610 C   0  0  0  0  0  0  0  0  0  0  0  0
   32.0330    3.0040   10.3660 C   0  0  0  0  0  0  0  0  0  0  0  0
   31.9430    3.6460    9.1230 C   0  0  0  0  0  0  0  0  0  0  0  0
   30.6880    3.7370    8.4980 C   0  0  0  0  0  0  0  0  0  0  0  0
   29.5590    3.1770    9.1000 C   0  0  0  0  0  0  0  0  0  0  0  0
   29.6630    2.5120   10.3260 C   0  0  0  0  0  0  0  0  0  0  0  0
   33.1850    4.2190    8.4640 C   0  0  0  0  0  0  0  0  0  0  0  0
   33.7240    5.3890    9.2980 C   0  0  0  0  0  0  0  0  0  0  0  0
   34.2530    3.1310    8.2690 C   0  0  0  0  0  0  0  0  0  0  0  0
   28.6720    6.0690   14.3510 O   0  0  0  0  0  0  0  0  0  0  0  0
   26.6060    5.4410   16.1720 C   0  0  0  0  0  0  0  0  0  0  0  0
   28.1180    8.1830   17.0560 C   0  0  0  0  0  0  0  0  0  0  0  0
   28.3770    4.7560   17.2310 H   0  0  0  0  0  0  0  0  0  0  0  0
   30.6730    5.6900   16.8300 H   0  0  0  0  0  0  0  0  0  0  0  0
   31.0610    6.3650   13.9250 H   0  0  0  0  0  0  0  0  0  0  0  0
   33.1080    6.3120   16.2490 H   0  0  0  0  0  0  0  0  0  0  0  0
   33.3330    6.9980   14.5990 H   0  0  0  0  0  0  0  0  0  0  0  0
   32.3230    7.6490   17.9750 H   0  0  0  0  0  0  0  0  0  0  0  0
   30.5110   11.5100   17.1970 H   0  0  0  0  0  0  0  0  0  0  0  0
   30.5740   11.0260   14.7570 H   0  0  0  0  0  0  0  0  0  0  0  0
   31.6170    8.9400   13.9220 H   0  0  0  0  0  0  0  0  0  0  0  0
   29.4840   10.1920   19.2790 H   0  0  0  0  0  0  0  0  0  0  0  0
   30.6490   11.5400   19.6720 H   0  0  0  0  0  0  0  0  0  0  0  0
   31.5990    9.3610   21.2080 H   0  0  0  0  0  0  0  0  0  0  0  0
   30.6530   10.7540   21.8730 H   0  0  0  0  0  0  0  0  0  0  0  0
   28.5390    9.4980   21.6630 H   0  0  0  0  0  0  0  0  0  0  0  0
   29.7300    8.4830   22.5580 H   0  0  0  0  0  0  0  0  0  0  0  0
   29.5430    6.8040   21.0420 H   0  0  0  0  0  0  0  0  0  0  0  0
   30.0550    7.8860   19.7090 H   0  0  0  0  0  0  0  0  0  0  0  0
   27.7010    8.7660   19.4690 H   0  0  0  0  0  0  0  0  0  0  0  0
   27.1260    7.6860   20.7670 H   0  0  0  0  0  0  0  0  0  0  0  0
   32.4130    4.0210   15.5060 H   0  0  0  0  0  0  0  0  0  0  0  0
   30.7680    4.1980   12.8300 H   0  0  0  0  0  0  0  0  0  0  0  0
   30.1890    3.4040   14.3890 H   0  0  0  0  0  0  0  0  0  0  0  0
   32.7730    2.6110   12.9840 H   0  0  0  0  0  0  0  0  0  0  0  0
   31.8670    1.7430   14.2000 H   0  0  0  0  0  0  0  0  0  0  0  0
   31.5550    0.6530   12.0300 H   0  0  0  0  0  0  0  0  0  0  0  0
   29.9890    1.3810   12.6430 H   0  0  0  0  0  0  0  0  0  0  0  0
   32.9960    2.9870   10.8700 H   0  0  0  0  0  0  0  0  0  0  0  0
   30.5890    4.2570    7.5380 H   0  0  0  0  0  0  0  0  0  0  0  0
   28.5810    3.2490    8.6100 H   0  0  0  0  0  0  0  0  0  0  0  0
   28.7750    2.0650   10.7820 H   0  0  0  0  0  0  0  0  0  0  0  0
   32.9090    4.6180    7.4510 H   0  0  0  0  0  0  0  0  0  0  0  0
   33.0360    6.2610    9.2100 H   0  0  0  0  0  0  0  0  0  0  0  0
   34.7300    5.6850    8.9300 H   0  0  0  0  0  0  0  0  0  0  0  0
   33.8070    5.1090   10.3680 H   0  0  0  0  0  0  0  0  0  0  0  0
   34.0610    4.8320   14.2640 H   0  0  0  0  0  0  0  0  0  0  0  0
   25.9190    5.2470   17.0320 H   0  0  0  0  0  0  0  0  0  0  0  0
   26.2280    6.3290   15.6170 H   0  0  0  0  0  0  0  0  0  0  0  0
   26.5890    4.5470   15.5080 H   0  0  0  0  0  0  0  0  0  0  0  0
   28.2320    8.1510   15.9460 H   0  0  0  0  0  0  0  0  0  0  0  0
   27.1730    8.7360   17.2920 H   0  0  0  0  0  0  0  0  0  0  0  0
   29.0050    8.7300   17.4730 H   0  0  0  0  0  0  0  0  0  0  0  0
   33.8650    2.3150    7.6230 H   0  0  0  0  0  0  0  0  0  0  0  0
   35.1500    3.5710    7.7700 H   0  0  0  0  0  0  0  0  0  0  0  0
   34.5720    2.7070    9.2450 H   0  0  0  0  0  0  0  0  0  0  0  0
  1  2  1  0  0  0  0
  1 19  1  0  0  0  0
  1 37  1  0  0  0  0
  2  3  1  0  0  0  0
  2 36  1  0  0  0  0
  2 38  1  1  0  0  0
  3  4  1  0  0  0  0
  3 35  2  0  0  0  0
  4  5  1  0  0  0  0
  5  6  1  0  0  0  0
  5 21  1  0  0  0  0
  5 40  1  6  0  0  0
  6  7  1  0  0  0  0
  7  8  2  0  0  0  0
  7 12  1  0  0  0  0
  8  9  1  0  0  0  0
  9 10  2  0  0  0  0
  9 13  1  0  0  0  0
 10 11  1  0  0  0  0
 11 12  2  0  0  0  0
 13 14  1  0  0  0  0
 14 15  1  0  0  0  0
 15 16  1  0  0  0  0
 16 17  1  0  0  0  0
 17 18  1  0  0  0  0
 18 19  1  0  0  0  0
 19 20  2  0  0  0  0
 21 22  1  0  0  0  0
 21 23  1  0  0  0  0
 21 57  1  1  0  0  0
 23 24  1  0  0  0  0
 24 25  1  0  0  0  0
 25 26  1  0  0  0  0
 26 27  2  0  0  0  0
 26 31  1  0  0  0  0
 27 28  1  0  0  0  0
 28 29  2  0  0  0  0
 28 32  1  0  0  0  0
 29 30  1  0  0  0  0
 30 31  2  0  0  0  0
 32 33  1  0  0  0  0
 32 34  1  0  0  0  0
 39  4  1  0  0  0  0
 41  6  1  0  0  0  0
 42  6  1  0  0  0  0
 43  8  1  0  0  0  0
 44 10  1  0  0  0  0
 45 11  1  0  0  0  0
 46 12  1  0  0  0  0
 47 14  1  0  0  0  0
 48 14  1  0  0  0  0
 49 15  1  0  0  0  0
 50 15  1  0  0  0  0
 51 16  1  0  0  0  0
 52 16  1  0  0  0  0
 53 17  1  0  0  0  0
 54 17  1  0  0  0  0
 55 18  1  0  0  0  0
 56 18  1  0  0  0  0
 58 23  1  0  0  0  0
 59 23  1  0  0  0  0
 60 24  1  0  0  0  0
 61 24  1  0  0  0  0
 62 25  1  0  0  0  0
 63 25  1  0  0  0  0
 64 27  1  0  0  0  0
 65 29  1  0  0  0  0
 66 30  1  0  0  0  0
 67 31  1  0  0  0  0
 68 32  1  0  0  0  0
 69 33  1  0  0  0  0
 70 33  1  0  0  0  0
 71 33  1  0  0  0  0
 72 22  1  0  0  0  0
 73 36  1  0  0  0  0
 74 36  1  0  0  0  0
 75 36  1  0  0  0  0
 76 37  1  0  0  0  0
 77 37  1  0  0  0  0
 78 37  1  0  0  0  0
 79 34  1  0  0  0  0
 80 34  1  0  0  0  0
 81 34  1  0  0  0  0
M  CHG  1  24   1
M  END
>  <IC50_NM>
32

>  <number_of_rotatable_bonds>
6

>  <lm5_entropy_jk>
39.71872868350828

>  <charge>
1

>  <old_name>
BACE_11

>  <xray_resolution>
2.25

$$$$
