4K6Z
 OpenBabel11252210453D

 39 42  0  0  1  0  0  0  0  0999 V2000
  -17.3180   25.3590   -0.8410 N   0  0  0  0  0  0  0  0  0  0  0  0
  -17.2420   27.7640   -1.1340 C   0  0  0  0  0  0  0  0  0  0  0  0
  -15.6380   24.1620    0.0230 O   0  0  0  0  0  0  0  0  0  0  0  0
  -17.8980   26.5500   -1.2650 C   0  0  0  0  0  0  0  0  0  0  0  0
  -13.9090   28.8720    0.3150 N   0  0  0  0  0  0  0  0  0  0  0  0
  -16.0800   25.2530   -0.2810 C   0  0  0  0  0  0  0  0  0  0  0  0
  -14.1380   26.5150    0.5550 N   0  0  0  0  0  0  0  0  0  0  0  0
  -15.3290   26.5480   -0.0820 C   0  0  0  0  0  0  0  0  0  0  0  0
  -10.6510   26.6960    2.7590 N   0  0  0  0  0  0  0  0  0  0  0  0
  -15.8800   27.7590   -0.5420 C   0  0  0  0  0  0  0  0  0  0  0  0
  -10.4730   28.0670    2.6120 N   0  0  0  0  0  0  0  0  0  0  0  0
  -15.0780   28.9170   -0.3390 C   0  0  0  0  0  0  0  0  0  0  0  0
  -15.4470   30.2110   -0.6620 N   0  0  0  0  0  0  0  0  0  0  0  0
  -13.4910   27.6690    0.7360 C   0  0  0  0  0  0  0  0  0  0  0  0
  -13.0300   29.0560   -3.4820 N   0  0  0  0  0  0  0  0  0  0  0  0
  -12.2440   27.6030    1.5060 C   0  0  0  0  0  0  0  0  0  0  0  0
  -11.7590   26.4100    2.0870 C   0  0  0  0  0  0  0  0  0  0  0  0
  -11.4580   28.6590    1.8320 C   0  0  0  0  0  0  0  0  0  0  0  0
  -15.8840   30.7130   -1.9770 C   0  0  1  0  0  0  0  0  0  0  0  0
  -16.4160   32.1440   -1.7280 C   0  0  0  0  0  0  0  0  0  0  0  0
  -15.2490   33.1490   -1.9750 C   0  0  0  0  0  0  0  0  0  0  0  0
  -14.0520   32.2830   -2.4140 C   0  0  0  0  0  0  0  0  0  0  0  0
  -14.7050   30.9890   -2.9350 C   0  0  1  0  0  0  0  0  0  0  0  0
  -13.7770   29.8860   -3.2020 C   0  0  0  0  0  0  0  0  0  0  0  0
  -17.7660   28.6670   -1.4250 H   0  0  0  0  0  0  0  0  0  0  0  0
  -18.8960   26.4320   -1.6850 H   0  0  0  0  0  0  0  0  0  0  0  0
  -17.8090   24.4650   -0.8670 H   0  0  0  0  0  0  0  0  0  0  0  0
  -14.8980   30.8780   -0.1430 H   0  0  0  0  0  0  0  0  0  0  0  0
  -16.6330   30.0590   -2.4520 H   0  0  0  0  0  0  0  0  0  0  0  0
  -16.8160   32.2600   -0.7120 H   0  0  0  0  0  0  0  0  0  0  0  0
  -17.2610   32.3570   -2.4010 H   0  0  0  0  0  0  0  0  0  0  0  0
  -15.5210   33.8700   -2.7660 H   0  0  0  0  0  0  0  0  0  0  0  0
  -15.0180   33.7460   -1.0770 H   0  0  0  0  0  0  0  0  0  0  0  0
  -13.3960   32.0640   -1.5610 H   0  0  0  0  0  0  0  0  0  0  0  0
   -9.6970   28.5460    3.0620 H   0  0  0  0  0  0  0  0  0  0  0  0
  -11.5180   29.7190    1.6120 H   0  0  0  0  0  0  0  0  0  0  0  0
  -12.1470   25.3930    2.0460 H   0  0  0  0  0  0  0  0  0  0  0  0
  -13.4400   32.7720   -3.1840 H   0  0  0  0  0  0  0  0  0  0  0  0
  -15.1390   31.2250   -3.9130 H   0  0  0  0  0  0  0  0  0  0  0  0
  1  6  1  0  0  0  0
  2 10  1  0  0  0  0
  4  2  2  0  0  0  0
  4  1  1  0  0  0  0
  5 14  2  0  0  0  0
  6  8  1  0  0  0  0
  6  3  2  0  0  0  0
  7 14  1  0  0  0  0
  8  7  2  0  0  0  0
 10 12  2  0  0  0  0
 10  8  1  0  0  0  0
 11 35  1  0  0  0  0
 11  9  1  0  0  0  0
 12  5  1  0  0  0  0
 13 28  1  0  0  0  0
 13 12  1  0  0  0  0
 14 16  1  0  0  0  0
 15 24  3  0  0  0  0
 16 17  1  0  0  0  0
 17  9  2  0  0  0  0
 17 37  1  0  0  0  0
 18 16  2  0  0  0  0
 18 11  1  0  0  0  0
 19 29  1  6  0  0  0
 19 20  1  0  0  0  0
 19 13  1  0  0  0  0
 19 23  1  0  0  0  0
 20 30  1  0  0  0  0
 21 33  1  0  0  0  0
 21 20  1  0  0  0  0
 22 34  1  0  0  0  0
 22 21  1  0  0  0  0
 23 39  1  6  0  0  0
 23 22  1  0  0  0  0
 24 23  1  0  0  0  0
 25  2  1  0  0  0  0
 26  4  1  0  0  0  0
 27  1  1  0  0  0  0
 31 20  1  0  0  0  0
 32 21  1  0  0  0  0
 36 18  1  0  0  0  0
 38 22  1  0  0  0  0
M  END
>  <charge>
0

>  <pKi>
8.7

>  <number_of_rotatable_bonds>
3
3

>  <lm5_entropy_jk>
20.793680313784687

$$$$
