1zoh
 OpenBabel11252210453D

 24 26  0  0  1  0  0  0  0  0999 V2000
   22.6440    8.3660   17.7840 C   0  0  0  0  0  0  0  0  0  0  0  0
   21.6900    8.9730   18.6470 C   0  0  0  0  0  0  0  0  0  0  0  0
   21.4480    8.4580   19.9140 C   0  0  0  0  0  0  0  0  0  0  0  0
   23.3520    7.2330   18.1660 C   0  0  0  0  0  0  0  0  0  0  0  0
   23.6390    5.5030   20.0000 N   0  0  0  0  0  0  0  0  0  0  0  0
   23.0860    6.6590   19.4170 C   0  0  0  0  0  0  0  0  0  0  0  0
   22.1390    7.3060   20.3020 C   0  0  0  0  0  0  0  0  0  0  0  0
   22.1220    6.5130   21.4390 N   0  0  0  0  0  0  0  0  0  0  0  0
   23.0530    5.4340   21.2180 C   0  0  0  0  0  0  0  0  0  0  0  0
   23.1990    4.6550   22.3940 N   0  0  0  0  0  0  0  0  0  0  0  0
   23.1600    3.1790   22.2180 C   0  0  0  0  0  0  0  0  0  0  0  0
   21.5350    6.4870   22.7930 C   0  0  0  0  0  0  0  0  0  0  0  0
   22.1620    5.1800   23.3780 C   0  0  0  0  0  0  0  0  0  0  0  0
   24.6940    6.3890   17.1440 Br  0  0  0  0  0  0  0  0  0  0  0  0
   22.9840    9.1240   16.0770 Br  0  0  0  0  0  0  0  0  0  0  0  0
   20.7700   10.5360   18.0750 Br  0  0  0  0  0  0  0  0  0  0  0  0
   20.2570    9.1540   21.2110 Br  0  0  0  0  0  0  0  0  0  0  0  0
   22.7030    5.3910   24.3360 H   0  0  0  0  0  0  0  0  0  0  0  0
   20.4150    6.4200   22.7490 H   0  0  0  0  0  0  0  0  0  0  0  0
   21.8210    7.3870   23.3980 H   0  0  0  0  0  0  0  0  0  0  0  0
   21.3580    4.4280   23.5870 H   0  0  0  0  0  0  0  0  0  0  0  0
   23.9700    2.8680   21.5080 H   0  0  0  0  0  0  0  0  0  0  0  0
   22.1760    2.7930   21.8480 H   0  0  0  0  0  0  0  0  0  0  0  0
   23.3670    2.7160   23.2210 H   0  0  0  0  0  0  0  0  0  0  0  0
  1  2  2  0  0  0  0
  1  4  1  0  0  0  0
  1 15  1  0  0  0  0
  2  3  1  0  0  0  0
  2 16  1  0  0  0  0
  3  7  2  0  0  0  0
  3 17  1  0  0  0  0
  4  6  2  0  0  0  0
  4 14  1  0  0  0  0
  5  6  1  0  0  0  0
  5  9  2  0  0  0  0
  6  7  1  0  0  0  0
  7  8  1  0  0  0  0
  8  9  1  0  0  0  0
  8 12  1  0  0  0  0
  9 10  1  0  0  0  0
 10 11  1  0  0  0  0
 10 13  1  0  0  0  0
 11 22  1  0  0  0  0
 11 23  1  0  0  0  0
 11 24  1  0  0  0  0
 12 13  1  0  0  0  0
 12 19  1  0  0  0  0
 12 20  1  0  0  0  0
 13 18  1  0  0  0  0
 13 21  1  0  0  0  0
M  END
>  <charge>
0

>  <Ki_NM>
100

>  <number_of_rotatable_bonds>
0

>  <lm5_entropy_jk>
16.12636398139741

$$$$
