3QTS
 OpenBabel11252210453D

 38 40  0  0  1  0  0  0  0  0999 V2000
   65.6950  154.3780  -50.1270 N   0  0  0  0  0  0  0  0  0  0  0  0
   67.3670  153.5190  -51.6210 N   0  0  0  0  0  0  0  0  0  0  0  0
   64.0740  154.7220  -48.4230 N   0  0  0  0  0  0  0  0  0  0  0  0
   68.1610  149.1600  -45.8630 C   0  0  0  0  0  0  0  0  0  0  0  0
   68.1180  150.5290  -45.5960 C   0  0  0  0  0  0  0  0  0  0  0  0
   68.2470  151.4900  -46.6270 C   0  0  0  0  0  0  0  0  0  0  0  0
   68.5100  149.6760  -48.2170 C   0  0  0  0  0  0  0  0  0  0  0  0
   68.3630  148.7490  -47.1860 C   0  0  0  0  0  0  0  0  0  0  0  0
   67.6320  150.2590  -43.2410 C   0  0  0  0  0  0  0  0  0  0  0  0
   68.4250  151.0490  -47.9330 C   0  0  0  0  0  0  0  0  0  0  0  0
   68.4830  152.0170  -49.0970 C   0  0  0  0  0  0  0  0  0  0  0  0
   67.3040  152.8100  -49.2650 C   0  0  0  0  0  0  0  0  0  0  0  0
   66.8510  153.5780  -50.3570 C   0  0  0  0  0  0  0  0  0  0  0  0
   65.1930  154.0890  -48.8970 C   0  0  0  0  0  0  0  0  0  0  0  0
   63.3730  154.5210  -47.1880 C   0  0  0  0  0  0  0  0  0  0  0  0
   63.5140  153.4010  -46.3600 C   0  0  0  0  0  0  0  0  0  0  0  0
   62.8010  153.3520  -45.1550 C   0  0  0  0  0  0  0  0  0  0  0  0
   61.9220  154.3730  -44.7950 C   0  0  0  0  0  0  0  0  0  0  0  0
   61.7450  155.4660  -45.6530 C   0  0  0  0  0  0  0  0  0  0  0  0
   62.4650  155.5490  -46.8410 C   0  0  0  0  0  0  0  0  0  0  0  0
   69.4650  152.0590  -49.8200 O   0  0  0  0  0  0  0  0  0  0  0  0
   67.9730  151.1170  -44.3590 O   0  0  0  0  0  0  0  0  0  0  0  0
   66.1460  152.8410  -47.9700 S   0  0  0  0  0  0  0  0  0  0  0  0
   68.0370  148.4040  -45.0860 H   0  0  0  0  0  0  0  0  0  0  0  0
   67.0280  154.1580  -52.3700 H   0  0  0  0  0  0  0  0  0  0  0  0
   68.2640  153.0590  -51.7810 H   0  0  0  0  0  0  0  0  0  0  0  0
   68.2280  152.5400  -46.3440 H   0  0  0  0  0  0  0  0  0  0  0  0
   63.5760  155.3690  -49.0880 H   0  0  0  0  0  0  0  0  0  0  0  0
   68.6920  149.3260  -49.2320 H   0  0  0  0  0  0  0  0  0  0  0  0
   68.3950  147.6820  -47.4030 H   0  0  0  0  0  0  0  0  0  0  0  0
   67.5350  150.9950  -42.4100 H   0  0  0  0  0  0  0  0  0  0  0  0
   68.4530  149.5370  -43.0450 H   0  0  0  0  0  0  0  0  0  0  0  0
   66.6670  149.7440  -43.4360 H   0  0  0  0  0  0  0  0  0  0  0  0
   64.1320  152.5410  -46.6210 H   0  0  0  0  0  0  0  0  0  0  0  0
   62.9400  152.4980  -44.4860 H   0  0  0  0  0  0  0  0  0  0  0  0
   61.3750  154.3240  -43.8520 H   0  0  0  0  0  0  0  0  0  0  0  0
   61.0400  156.2620  -45.3930 H   0  0  0  0  0  0  0  0  0  0  0  0
   62.3160  156.4040  -47.5030 H   0  0  0  0  0  0  0  0  0  0  0  0
  1 13  1  0  0  0  0
  1 14  2  0  0  0  0
  2 13  1  0  0  0  0
  2 25  1  0  0  0  0
  2 26  1  0  0  0  0
  3 14  1  0  0  0  0
  3 15  1  0  0  0  0
  3 28  1  0  0  0  0
  4  5  2  0  0  0  0
  4  8  1  0  0  0  0
  4 24  1  0  0  0  0
  5  6  1  0  0  0  0
  5 22  1  0  0  0  0
  6 10  2  0  0  0  0
  6 27  1  0  0  0  0
  7  8  2  0  0  0  0
  7 10  1  0  0  0  0
  7 29  1  0  0  0  0
  8 30  1  0  0  0  0
  9 22  1  0  0  0  0
  9 31  1  0  0  0  0
  9 32  1  0  0  0  0
  9 33  1  0  0  0  0
 11 10  1  0  0  0  0
 11 12  1  0  0  0  0
 11 21  2  0  0  0  0
 12 13  2  0  0  0  0
 12 23  1  0  0  0  0
 14 23  1  0  0  0  0
 15 16  2  0  0  0  0
 15 20  1  0  0  0  0
 16 17  1  0  0  0  0
 16 34  1  0  0  0  0
 17 18  2  0  0  0  0
 17 35  1  0  0  0  0
 18 19  1  0  0  0  0
 18 36  1  0  0  0  0
 19 20  2  0  0  0  0
 19 37  1  0  0  0  0
 20 38  1  0  0  0  0
M  END
>  <lm5_entropy_jk>
31.97375871552738

>  <number_of_rotatable_bonds>
5

>  <IC50_NM>
3100

>  <charge>
0

$$$$
