model23a
 OpenBabel11252210453D

 84 89  0  0  1  0  0  0  0  0999 V2000
    2.7720    2.5160    9.2200 C   0  0  0  0  0  0  0  0  0  0  0  0
    3.7770    4.4570    8.4810 O   0  0  0  0  0  0  0  0  0  0  0  0
    2.9590    3.8960    7.3980 C   0  0  0  0  0  0  0  0  0  0  0  0
    5.1950    0.4240   16.6470 O   0  0  0  0  0  0  0  0  0  0  0  0
    4.1680   -1.2630   12.2240 O   0  0  0  0  0  0  0  0  0  0  0  0
    4.5040    0.0940   14.0160 N   0  0  0  0  0  0  0  0  0  0  0  0
    2.3620    2.6490    7.8980 O   0  0  0  0  0  0  0  0  0  0  0  0
    3.3340   -5.4570   16.9780 C   0  0  0  0  0  0  0  0  0  0  0  0
    5.8720   -3.8000   16.6770 N   0  0  0  0  0  0  0  0  0  0  0  0
    4.0150   -6.3860   17.7780 C   0  0  0  0  0  0  0  0  0  0  0  0
    6.6150   -3.7070   14.5240 O   0  0  0  0  0  0  0  0  0  0  0  0
    2.4360    1.5290   10.1180 C   0  0  0  0  0  0  0  0  0  0  0  0
    3.8650   -7.7560   17.5450 C   0  0  0  0  0  0  0  0  0  0  0  0
    3.6290    3.6040    9.5680 C   0  0  0  0  0  0  0  0  0  0  0  0
    3.0250   -8.2070   16.5220 C   0  0  0  0  0  0  0  0  0  0  0  0
    3.0050    1.6400   11.4180 C   0  0  0  0  0  0  0  0  0  0  0  0
    2.3480   -7.2810   15.7230 C   0  0  0  0  0  0  0  0  0  0  0  0
    3.8450    2.7050   11.7460 C   0  0  0  0  0  0  0  0  0  0  0  0
    2.5070   -5.9110   15.9380 C   0  0  0  0  0  0  0  0  0  0  0  0
    2.6510    0.6140   12.4590 C   0  0  0  0  0  0  0  0  0  0  0  0
    3.8410   -0.2630   12.8420 C   0  0  0  0  0  0  0  0  0  0  0  0
    5.6800   -0.6450   14.5270 C   0  0  1  0  0  0  0  0  0  0  0  0
    4.1790    3.7230   10.8230 C   0  0  0  0  0  0  0  0  0  0  0  0
    8.0670   -0.1590   10.6670 C   0  0  0  0  0  0  0  0  0  0  0  0
    7.8210    1.1340   10.1930 C   0  0  0  0  0  0  0  0  0  0  0  0
    7.3250    2.1080   11.0640 C   0  0  0  0  0  0  0  0  0  0  0  0
    7.0510    1.7840   12.3950 C   0  0  0  0  0  0  0  0  0  0  0  0
    7.2770    0.4820   12.8680 C   0  0  0  0  0  0  0  0  0  0  0  0
    7.8000   -0.4880   11.9970 C   0  0  0  0  0  0  0  0  0  0  0  0
    6.9930    0.1530   14.3060 C   0  0  0  0  0  0  0  0  0  0  0  0
    5.5100   -0.8730   16.0600 C   0  0  2  0  0  0  0  0  0  0  0  0
    4.3590   -1.7710   16.5130 C   0  0  0  0  0  0  0  0  0  0  0  0
    4.5100   -3.2930   16.3350 C   0  0  2  0  0  0  0  0  0  0  0  0
    6.7930   -4.0640   15.6810 C   0  0  0  0  0  0  0  0  0  0  0  0
    8.0580   -4.8820   16.0160 C   0  0  1  0  0  0  0  0  0  0  0  0
    8.6950   -4.3950   17.2340 O   0  0  0  0  0  0  0  0  0  0  0  0
    3.4660   -3.9860   17.2490 C   0  0  0  0  0  0  0  0  0  0  0  0
    9.0930   -5.4750   18.0410 C   0  0  0  0  0  0  0  0  0  0  0  0
    9.7510   -5.2920   19.0280 O   0  0  0  0  0  0  0  0  0  0  0  0
    8.5130   -6.6540   17.5340 N   0  0  0  0  0  0  0  0  0  0  0  0
    7.7750   -6.3810   16.2650 C   0  0  0  0  0  0  0  0  0  0  0  0
    8.9360   -7.9850   17.8780 C   0  0  0  0  0  0  0  0  0  0  0  0
    8.0140   -9.0400   17.7670 C   0  0  0  0  0  0  0  0  0  0  0  0
    8.4000  -10.3280   18.1420 C   0  0  0  0  0  0  0  0  0  0  0  0
    9.6850  -10.5660   18.6380 C   0  0  0  0  0  0  0  0  0  0  0  0
   10.5940   -9.5090   18.7530 C   0  0  0  0  0  0  0  0  0  0  0  0
   10.2360   -8.2180   18.3610 C   0  0  0  0  0  0  0  0  0  0  0  0
    1.7620    0.7120    9.8640 H   0  0  0  0  0  0  0  0  0  0  0  0
    4.8400    4.5420   11.1100 H   0  0  0  0  0  0  0  0  0  0  0  0
    4.2840    2.7750   12.7440 H   0  0  0  0  0  0  0  0  0  0  0  0
    3.6370    3.6450    6.5580 H   0  0  0  0  0  0  0  0  0  0  0  0
    2.1380    4.6090    7.1840 H   0  0  0  0  0  0  0  0  0  0  0  0
    4.3320    0.9800   14.4940 H   0  0  0  0  0  0  0  0  0  0  0  0
    6.0600   -3.9670   17.6660 H   0  0  0  0  0  0  0  0  0  0  0  0
    4.2260   -1.5600   17.6060 H   0  0  0  0  0  0  0  0  0  0  0  0
    4.6570   -6.0430   18.5910 H   0  0  0  0  0  0  0  0  0  0  0  0
    4.4070   -8.4750   18.1650 H   0  0  0  0  0  0  0  0  0  0  0  0
    2.9080   -9.2790   16.3500 H   0  0  0  0  0  0  0  0  0  0  0  0
    1.6970   -7.6260   14.9240 H   0  0  0  0  0  0  0  0  0  0  0  0
    1.9750   -5.1970   15.3100 H   0  0  0  0  0  0  0  0  0  0  0  0
    1.8310   -0.0600   12.0840 H   0  0  0  0  0  0  0  0  0  0  0  0
    5.7590   -1.6450   14.0200 H   0  0  0  0  0  0  0  0  0  0  0  0
    2.2210    1.1360   13.3550 H   0  0  0  0  0  0  0  0  0  0  0  0
    6.0840    0.7450   17.0590 H   0  0  0  0  0  0  0  0  0  0  0  0
    8.4810   -0.9070    9.9910 H   0  0  0  0  0  0  0  0  0  0  0  0
    8.0180    1.3870    9.1500 H   0  0  0  0  0  0  0  0  0  0  0  0
    7.1570    3.1290   10.7120 H   0  0  0  0  0  0  0  0  0  0  0  0
    6.6720    2.5550   13.0710 H   0  0  0  0  0  0  0  0  0  0  0  0
    8.0140   -1.4900   12.3680 H   0  0  0  0  0  0  0  0  0  0  0  0
    7.8390   -0.4340   14.7430 H   0  0  0  0  0  0  0  0  0  0  0  0
    6.9350    1.1000   14.9090 H   0  0  0  0  0  0  0  0  0  0  0  0
    6.4740   -1.2200   16.5020 H   0  0  0  0  0  0  0  0  0  0  0  0
    3.4160   -1.4580   15.9990 H   0  0  0  0  0  0  0  0  0  0  0  0
    4.2980   -3.5650   15.2650 H   0  0  0  0  0  0  0  0  0  0  0  0
    8.8180   -4.7160   15.2090 H   0  0  0  0  0  0  0  0  0  0  0  0
    3.7320   -3.8250   18.3250 H   0  0  0  0  0  0  0  0  0  0  0  0
    2.4750   -3.4860   17.0940 H   0  0  0  0  0  0  0  0  0  0  0  0
    8.1470   -7.0270   15.4300 H   0  0  0  0  0  0  0  0  0  0  0  0
    6.6820   -6.5950   16.4250 H   0  0  0  0  0  0  0  0  0  0  0  0
    6.9980   -8.8680   17.4050 H   0  0  0  0  0  0  0  0  0  0  0  0
    7.6840  -11.1510   18.0560 H   0  0  0  0  0  0  0  0  0  0  0  0
    9.9750  -11.5770   18.9380 H   0  0  0  0  0  0  0  0  0  0  0  0
   11.5980   -9.6970   19.1470 H   0  0  0  0  0  0  0  0  0  0  0  0
   10.9700   -7.4140   18.4330 H   0  0  0  0  0  0  0  0  0  0  0  0
  1 14  2  0  0  0  0
  1 12  1  0  0  0  0
  2 14  1  0  0  0  0
  3  7  1  0  0  0  0
  3  2  1  0  0  0  0
  4 64  1  0  0  0  0
  5 21  2  0  0  0  0
  6 22  1  0  0  0  0
  6 53  1  0  0  0  0
  7  1  1  0  0  0  0
  8 37  1  0  0  0  0
  8 10  1  0  0  0  0
  9 54  1  0  0  0  0
 10 56  1  0  0  0  0
 11 34  2  0  0  0  0
 12 16  2  0  0  0  0
 13 10  2  0  0  0  0
 13 57  1  0  0  0  0
 14 23  1  0  0  0  0
 15 13  1  0  0  0  0
 16 18  1  0  0  0  0
 16 20  1  0  0  0  0
 17 19  1  0  0  0  0
 17 15  2  0  0  0  0
 18 50  1  0  0  0  0
 19  8  2  0  0  0  0
 20 21  1  0  0  0  0
 20 63  1  0  0  0  0
 21  6  1  0  0  0  0
 22 62  1  6  0  0  0
 22 31  1  0  0  0  0
 23 49  1  0  0  0  0
 23 18  2  0  0  0  0
 24 29  1  0  0  0  0
 25 24  2  0  0  0  0
 25 26  1  0  0  0  0
 26 27  2  0  0  0  0
 27 28  1  0  0  0  0
 27 68  1  0  0  0  0
 28 30  1  0  0  0  0
 29 69  1  0  0  0  0
 29 28  2  0  0  0  0
 30 70  1  0  0  0  0
 30 22  1  0  0  0  0
 30 71  1  0  0  0  0
 31 72  1  1  0  0  0
 31  4  1  0  0  0  0
 31 32  1  0  0  0  0
 32 55  1  0  0  0  0
 33 74  1  6  0  0  0
 33 32  1  0  0  0  0
 33  9  1  0  0  0  0
 33 37  1  0  0  0  0
 34 35  1  0  0  0  0
 34  9  1  0  0  0  0
 35 75  1  6  0  0  0
 35 36  1  0  0  0  0
 36 38  1  0  0  0  0
 37 76  1  0  0  0  0
 38 39  2  0  0  0  0
 40 42  1  0  0  0  0
 40 38  1  0  0  0  0
 41 35  1  0  0  0  0
 41 79  1  0  0  0  0
 41 40  1  0  0  0  0
 42 47  1  0  0  0  0
 43 42  2  0  0  0  0
 43 44  1  0  0  0  0
 44 45  2  0  0  0  0
 45 46  1  0  0  0  0
 45 82  1  0  0  0  0
 46 83  1  0  0  0  0
 47 84  1  0  0  0  0
 47 46  2  0  0  0  0
 48 12  1  0  0  0  0
 51  3  1  0  0  0  0
 52  3  1  0  0  0  0
 58 15  1  0  0  0  0
 59 17  1  0  0  0  0
 60 19  1  0  0  0  0
 61 20  1  0  0  0  0
 65 24  1  0  0  0  0
 66 25  1  0  0  0  0
 67 26  1  0  0  0  0
 73 32  1  0  0  0  0
 77 37  1  0  0  0  0
 78 41  1  0  0  0  0
 80 43  1  0  0  0  0
 81 44  1  0  0  0  0
M  END
>  <charge>
0

>  <KI_NM>
657.00

>  <number_of_rotatable_bonds>
15

>  <lm5_entropy_jk>
24.46231099087854

>  <ligand_crystal_conformation>
B

$$$$
