3LJO
 OpenBabel11252210453D

 61 63  0  0  1  0  0  0  0  0999 V2000
    1.9070   20.2360   18.1530 N   0  0  0  0  0  0  0  0  0  0  0  0
   -0.1900   21.0840   15.1720 N   0  3  0  0  0  0  0  0  0  0  0  0
    0.2670   17.4600   19.8700 N   0  0  0  0  0  0  0  0  0  0  0  0
   -1.6740   12.4270   14.9000 N   0  3  0  0  0  0  0  0  0  0  0  0
   -2.6610   14.3530   13.9850 N   0  0  0  0  0  0  0  0  0  0  0  0
    1.9030   19.2060   19.2150 C   0  0  1  0  0  0  0  0  0  0  0  0
    2.6980   19.8020   20.4110 C   0  0  0  0  0  0  0  0  0  0  0  0
    3.2960   21.1450   19.9120 C   0  0  0  0  0  0  0  0  0  0  0  0
    2.5280   21.4940   18.6200 C   0  0  0  0  0  0  0  0  0  0  0  0
    0.4500   18.7940   19.5770 C   0  0  0  0  0  0  0  0  0  0  0  0
    1.2450   20.0300   16.9490 C   0  0  0  0  0  0  0  0  0  0  0  0
    1.0860   21.2180   16.0530 C   0  0  0  0  0  0  0  0  0  0  0  0
   -0.3450   22.3180   14.3000 C   0  0  0  0  0  0  0  0  0  0  0  0
    0.6330   22.3520   13.1000 C   0  0  0  0  0  0  0  0  0  0  0  0
    0.5220   23.6990   12.3350 C   0  0  0  0  0  0  0  0  0  0  0  0
   -0.9310   23.9410   11.8570 C   0  0  0  0  0  0  0  0  0  0  0  0
   -1.9390   23.8470   13.0280 C   0  0  0  0  0  0  0  0  0  0  0  0
   -1.7860   22.4950   13.7750 C   0  0  0  0  0  0  0  0  0  0  0  0
   -1.0740   16.8190   19.8790 C   0  0  0  0  0  0  0  0  0  0  0  0
   -1.3090   15.9930   18.6380 C   0  0  0  0  0  0  0  0  0  0  0  0
   -1.2550   14.5940   18.6750 C   0  0  0  0  0  0  0  0  0  0  0  0
   -1.4910   13.8430   17.5090 C   0  0  0  0  0  0  0  0  0  0  0  0
   -1.7860   14.4930   16.2860 C   0  0  0  0  0  0  0  0  0  0  0  0
   -1.8140   15.9080   16.2670 C   0  0  0  0  0  0  0  0  0  0  0  0
   -1.5710   16.6420   17.4330 C   0  0  0  0  0  0  0  0  0  0  0  0
   -2.0830   13.7220   15.0450 C   0  0  0  0  0  0  0  0  0  0  0  0
   -0.4890   19.5790   19.5820 O   0  0  0  0  0  0  0  0  0  0  0  0
    0.7840   18.9530   16.6220 O   0  0  0  0  0  0  0  0  0  0  0  0
    2.3920   18.3030   18.8270 H   0  0  0  0  0  0  0  0  0  0  0  0
    3.4730   19.1070   20.7670 H   0  0  0  0  0  0  0  0  0  0  0  0
    2.0190   19.9820   21.2610 H   0  0  0  0  0  0  0  0  0  0  0  0
    3.2080   21.9490   20.6620 H   0  0  0  0  0  0  0  0  0  0  0  0
    4.3690   21.0480   19.6920 H   0  0  0  0  0  0  0  0  0  0  0  0
   -0.1740   20.2060   14.6150 H   0  0  0  0  0  0  0  0  0  0  0  0
   -1.0270   20.9820   15.7760 H   0  0  0  0  0  0  0  0  0  0  0  0
    1.7440   22.2350   18.8450 H   0  0  0  0  0  0  0  0  0  0  0  0
    3.2010   21.9200   17.8570 H   0  0  0  0  0  0  0  0  0  0  0  0
    1.0190   22.0960   16.6970 H   0  0  0  0  0  0  0  0  0  0  0  0
    1.9870   21.2740   15.4400 H   0  0  0  0  0  0  0  0  0  0  0  0
   -0.1230   23.1860   14.9370 H   0  0  0  0  0  0  0  0  0  0  0  0
    1.6700   22.2170   13.4410 H   0  0  0  0  0  0  0  0  0  0  0  0
    0.4280   21.5220   12.4110 H   0  0  0  0  0  0  0  0  0  0  0  0
    0.8480   24.5300   12.9820 H   0  0  0  0  0  0  0  0  0  0  0  0
    1.2090   23.7070   11.4730 H   0  0  0  0  0  0  0  0  0  0  0  0
   -1.1920   23.2080   11.0790 H   0  0  0  0  0  0  0  0  0  0  0  0
   -1.0080   24.9270   11.3690 H   0  0  0  0  0  0  0  0  0  0  0  0
   -2.9690   23.9650   12.6530 H   0  0  0  0  0  0  0  0  0  0  0  0
   -1.7830   24.6870   13.7250 H   0  0  0  0  0  0  0  0  0  0  0  0
   -2.0520   21.6770   13.0940 H   0  0  0  0  0  0  0  0  0  0  0  0
   -2.5060   22.4590   14.6090 H   0  0  0  0  0  0  0  0  0  0  0  0
    1.0880   16.8630   19.9020 H   0  0  0  0  0  0  0  0  0  0  0  0
   -1.1860   16.1860   20.7650 H   0  0  0  0  0  0  0  0  0  0  0  0
   -1.8600   17.5860   19.9440 H   0  0  0  0  0  0  0  0  0  0  0  0
   -1.0270   14.0950   19.6170 H   0  0  0  0  0  0  0  0  0  0  0  0
   -1.4510   12.7580   17.5750 H   0  0  0  0  0  0  0  0  0  0  0  0
   -2.0110   16.4680   15.3560 H   0  0  0  0  0  0  0  0  0  0  0  0
   -1.5710   17.7310   17.4000 H   0  0  0  0  0  0  0  0  0  0  0  0
   -2.1740   11.8500   14.2230 H   0  0  0  0  0  0  0  0  0  0  0  0
   -1.2480   11.9400   15.6880 H   0  0  0  0  0  0  0  0  0  0  0  0
   -3.1000   13.7280   13.3060 H   0  0  0  0  0  0  0  0  0  0  0  0
   -3.1560   15.2230   14.1590 H   0  0  0  0  0  0  0  0  0  0  0  0
  1  6  1  0  0  0  0
  1  9  1  0  0  0  0
  1 11  1  0  0  0  0
  2 12  1  0  0  0  0
  2 13  1  0  0  0  0
  2 34  1  0  0  0  0
  2 35  1  0  0  0  0
  3 10  1  0  0  0  0
  3 19  1  0  0  0  0
  3 51  1  0  0  0  0
  4 26  2  0  0  0  0
  4 58  1  0  0  0  0
  4 59  1  0  0  0  0
  5 26  1  0  0  0  0
  5 60  1  0  0  0  0
  5 61  1  0  0  0  0
  6  7  1  0  0  0  0
  6 10  1  0  0  0  0
  6 29  1  6  0  0  0
  7  8  1  0  0  0  0
  7 30  1  0  0  0  0
  7 31  1  0  0  0  0
  8  9  1  0  0  0  0
  8 32  1  0  0  0  0
  8 33  1  0  0  0  0
  9 36  1  0  0  0  0
  9 37  1  0  0  0  0
 10 27  2  0  0  0  0
 11 12  1  0  0  0  0
 11 28  2  0  0  0  0
 12 38  1  0  0  0  0
 12 39  1  0  0  0  0
 13 14  1  0  0  0  0
 13 18  1  0  0  0  0
 13 40  1  0  0  0  0
 14 15  1  0  0  0  0
 14 41  1  0  0  0  0
 14 42  1  0  0  0  0
 15 16  1  0  0  0  0
 15 43  1  0  0  0  0
 15 44  1  0  0  0  0
 16 17  1  0  0  0  0
 16 45  1  0  0  0  0
 16 46  1  0  0  0  0
 17 18  1  0  0  0  0
 17 47  1  0  0  0  0
 17 48  1  0  0  0  0
 18 49  1  0  0  0  0
 18 50  1  0  0  0  0
 19 20  1  0  0  0  0
 19 52  1  0  0  0  0
 19 53  1  0  0  0  0
 20 21  2  0  0  0  0
 20 25  1  0  0  0  0
 21 22  1  0  0  0  0
 21 54  1  0  0  0  0
 22 23  2  0  0  0  0
 22 55  1  0  0  0  0
 23 24  1  0  0  0  0
 23 26  1  0  0  0  0
 24 25  2  0  0  0  0
 24 56  1  0  0  0  0
 25 57  1  0  0  0  0
M  CHG  2   2   1   4   1
M  END
>  <number_of_rotatable_bonds>
9

>  <lm5_entropy_jk>
23.819977463858184

>  <deltaG_kcalmol>
-9.04

>  <charge>
2

$$$$
