5NXO
 OpenBabel11252210453D

 31 32  0  0  0  0  0  0  0  0999 V2000
   -5.3600    1.0280   15.8890 N   0  5  0  0  0  0  0  0  0  0  0  0
   -4.9990    3.8540   15.5310 C   0  0  0  0  0  0  0  0  0  0  0  0
   -7.0240    2.6490   16.5530 O   0  0  0  0  0  0  0  0  0  0  0  0
   -5.8040    4.9840   15.3660 C   0  0  0  0  0  0  0  0  0  0  0  0
   -0.0200   11.0370   13.9760 N   0  3  0  0  0  0  0  0  0  0  0  0
   -4.8300    2.6980   17.8470 O   0  0  0  0  0  0  0  0  0  0  0  0
   -5.4290    6.0020   14.4800 C   0  0  0  0  0  0  0  0  0  0  0  0
   -0.1860   11.7090   14.9880 O   0  5  0  0  0  0  0  0  0  0  0  0
   -4.2310    5.9020   13.7590 C   0  0  0  0  0  0  0  0  0  0  0  0
    0.8890   11.2600   13.1820 O   0  0  0  0  0  0  0  0  0  0  0  0
   -3.8650    6.9350   12.7250 C   0  0  0  0  0  0  0  0  0  0  0  0
   -2.7920    7.9040   13.1300 C   0  0  0  0  0  0  0  0  0  0  0  0
   -1.7730    8.2270   12.2130 C   0  0  0  0  0  0  0  0  0  0  0  0
   -0.8490    9.2280   12.4920 C   0  0  0  0  0  0  0  0  0  0  0  0
   -0.9380    9.9270   13.7090 C   0  0  0  0  0  0  0  0  0  0  0  0
   -1.9180    9.5800   14.6600 C   0  0  0  0  0  0  0  0  0  0  0  0
   -2.8270    8.5670   14.3720 C   0  0  0  0  0  0  0  0  0  0  0  0
   -3.4000    4.7930   13.9650 C   0  0  0  0  0  0  0  0  0  0  0  0
   -3.7860    3.7800   14.8500 C   0  0  0  0  0  0  0  0  0  0  0  0
   -5.5540    2.5270   16.5840 S   0  0  0  0  0  0  0  0  0  0  0  0
   -6.7410    5.1110   15.9200 H   0  0  0  0  0  0  0  0  0  0  0  0
   -6.0650    6.8760   14.3470 H   0  0  0  0  0  0  0  0  0  0  0  0
   -4.4090    0.6400   16.2290 H   0  0  0  0  0  0  0  0  0  0  0  0
   -1.7110    7.6980   11.2560 H   0  0  0  0  0  0  0  0  0  0  0  0
   -0.0750    9.4760   11.7570 H   0  0  0  0  0  0  0  0  0  0  0  0
   -1.9730   10.1180   15.6120 H   0  0  0  0  0  0  0  0  0  0  0  0
   -3.5900    8.2930   15.1070 H   0  0  0  0  0  0  0  0  0  0  0  0
   -2.4560    4.7180   13.4210 H   0  0  0  0  0  0  0  0  0  0  0  0
   -3.1120    2.9310   14.9710 H   0  0  0  0  0  0  0  0  0  0  0  0
   -4.7660    7.5530   12.4510 H   0  0  0  0  0  0  0  0  0  0  0  0
   -3.5560    6.4010   11.7830 H   0  0  0  0  0  0  0  0  0  0  0  0
  1 20  1  0  0  0  0
  2  4  2  0  0  0  0
  2 19  1  0  0  0  0
  2 20  1  0  0  0  0
  3 20  2  0  0  0  0
  4  7  1  0  0  0  0
  5  8  1  0  0  0  0
  5 10  2  0  0  0  0
  5 15  1  0  0  0  0
  6 20  2  0  0  0  0
  7  9  2  0  0  0  0
  9 11  1  0  0  0  0
  9 18  1  0  0  0  0
 11 12  1  0  0  0  0
 12 13  2  0  0  0  0
 12 17  1  0  0  0  0
 13 14  1  0  0  0  0
 14 15  2  0  0  0  0
 15 16  1  0  0  0  0
 16 17  2  0  0  0  0
 18 19  2  0  0  0  0
 21  4  1  0  0  0  0
 22  7  1  0  0  0  0
 23  1  1  0  0  0  0
 24 13  1  0  0  0  0
 25 14  1  0  0  0  0
 26 16  1  0  0  0  0
 27 17  1  0  0  0  0
 28 18  1  0  0  0  0
 29 19  1  0  0  0  0
 30 11  1  0  0  0  0
 31 11  1  0  0  0  0
M  CHG  3   1  -1   5   1   8  -1
M  END
>  <deltaG_kcalmol>
-11.3

>  <number_of_rotatable_bonds>
4

>  <charge>
-1

>  <lm5_entropy_jk>
23.26150331504224

$$$$
