3R8U
 OpenBabel11252210453D

 37 39  0  0  1  0  0  0  0  0999 V2000
   64.3720  155.4570  -48.7600 N   0  0  0  0  0  0  0  0  0  0  0  0
   65.7530  154.5680  -50.4920 N   0  0  0  0  0  0  0  0  0  0  0  0
   67.4010  153.4590  -51.8320 N   0  0  0  0  0  0  0  0  0  0  0  0
   62.6560  153.5790  -46.0590 C   0  0  0  0  0  0  0  0  0  0  0  0
   62.8500  154.1450  -47.2470 C   0  0  0  0  0  0  0  0  0  0  0  0
   63.7470  155.3430  -47.4180 C   0  0  0  0  0  0  0  0  0  0  0  0
   65.2780  154.5360  -49.2260 C   0  0  0  0  0  0  0  0  0  0  0  0
   67.2030  152.9550  -49.4310 C   0  0  0  0  0  0  0  0  0  0  0  0
   66.8360  153.6480  -50.6060 C   0  0  0  0  0  0  0  0  0  0  0  0
   68.3170  152.0820  -49.2250 C   0  0  0  0  0  0  0  0  0  0  0  0
   68.3400  151.2480  -47.9690 C   0  0  0  0  0  0  0  0  0  0  0  0
   68.2580  151.7810  -46.7050 C   0  0  0  0  0  0  0  0  0  0  0  0
   68.3260  150.9310  -45.5530 C   0  0  0  0  0  0  0  0  0  0  0  0
   68.4250  149.5260  -45.7300 C   0  0  0  0  0  0  0  0  0  0  0  0
   68.5200  149.0030  -47.0570 C   0  0  0  0  0  0  0  0  0  0  0  0
   68.4900  149.8370  -48.1430 C   0  0  0  0  0  0  0  0  0  0  0  0
   68.2970  151.4590  -44.2230 C   0  0  0  0  0  0  0  0  0  0  0  0
   68.2780  150.6190  -43.1390 C   0  0  0  0  0  0  0  0  0  0  0  0
   68.3350  149.2070  -43.3190 C   0  0  0  0  0  0  0  0  0  0  0  0
   68.4280  148.6750  -44.5800 C   0  0  0  0  0  0  0  0  0  0  0  0
   69.2250  151.9560  -50.0400 O   0  0  0  0  0  0  0  0  0  0  0  0
   66.0560  153.2570  -48.1670 S   0  0  0  0  0  0  0  0  0  0  0  0
   63.1100  156.2690  -47.2920 H   0  0  0  0  0  0  0  0  0  0  0  0
   64.5520  155.3650  -46.6460 H   0  0  0  0  0  0  0  0  0  0  0  0
   63.6990  155.8540  -49.4560 H   0  0  0  0  0  0  0  0  0  0  0  0
   67.1340  154.0760  -52.6280 H   0  0  0  0  0  0  0  0  0  0  0  0
   68.2610  152.9120  -51.9170 H   0  0  0  0  0  0  0  0  0  0  0  0
   68.1520  152.8560  -46.5310 H   0  0  0  0  0  0  0  0  0  0  0  0
   68.6210  147.9230  -47.1830 H   0  0  0  0  0  0  0  0  0  0  0  0
   68.5850  149.4260  -49.1510 H   0  0  0  0  0  0  0  0  0  0  0  0
   68.3060  152.5370  -44.0770 H   0  0  0  0  0  0  0  0  0  0  0  0
   68.2190  151.0100  -42.1220 H   0  0  0  0  0  0  0  0  0  0  0  0
   68.3160  148.5630  -42.4350 H   0  0  0  0  0  0  0  0  0  0  0  0
   68.4990  147.5940  -44.7180 H   0  0  0  0  0  0  0  0  0  0  0  0
   61.9860  152.7390  -45.9110 H   0  0  0  0  0  0  0  0  0  0  0  0
   63.1510  153.9240  -45.1500 H   0  0  0  0  0  0  0  0  0  0  0  0
   62.3490  153.8090  -48.1560 H   0  0  0  0  0  0  0  0  0  0  0  0
  1  6  1  0  0  0  0
  1  7  1  0  0  0  0
  1 25  1  0  0  0  0
  2  7  2  0  0  0  0
  2  9  1  0  0  0  0
  3  9  1  0  0  0  0
  3 26  1  0  0  0  0
  3 27  1  0  0  0  0
  4  5  2  0  0  0  0
  4 35  1  0  0  0  0
  4 36  1  0  0  0  0
  5  6  1  0  0  0  0
  5 37  1  0  0  0  0
  6 23  1  0  0  0  0
  6 24  1  0  0  0  0
  7 22  1  0  0  0  0
  8  9  2  0  0  0  0
  8 22  1  0  0  0  0
 10  8  1  0  0  0  0
 10 11  1  0  0  0  0
 10 21  2  0  0  0  0
 11 12  2  0  0  0  0
 11 16  1  0  0  0  0
 12 13  1  0  0  0  0
 12 28  1  0  0  0  0
 13 14  2  0  0  0  0
 13 17  1  0  0  0  0
 14 15  1  0  0  0  0
 14 20  1  0  0  0  0
 15 16  2  0  0  0  0
 15 29  1  0  0  0  0
 16 30  1  0  0  0  0
 17 18  2  0  0  0  0
 17 31  1  0  0  0  0
 18 19  1  0  0  0  0
 18 32  1  0  0  0  0
 19 20  2  0  0  0  0
 19 33  1  0  0  0  0
 20 34  1  0  0  0  0
M  END
>  <lm5_entropy_jk>
31.97375871552738

>  <number_of_rotatable_bonds>
5

>  <IC50_NM>
5000

>  <charge>
0

$$$$
