3QTR
 OpenBabel11252210453D

 34 36  0  0  1  0  0  0  0  0999 V2000
   65.8990  154.3350  -50.2910 N   0  0  0  0  0  0  0  0  0  0  0  0
   67.4680  153.4950  -51.9110 N   0  0  0  0  0  0  0  0  0  0  0  0
   64.4200  154.6730  -48.4680 N   0  0  0  0  0  0  0  0  0  0  0  0
   67.0060  153.5090  -50.6320 C   0  0  0  0  0  0  0  0  0  0  0  0
   67.5100  152.6740  -49.6100 C   0  0  0  0  0  0  0  0  0  0  0  0
   68.5320  151.6800  -49.7290 C   0  0  0  0  0  0  0  0  0  0  0  0
   68.6930  150.7220  -48.5820 C   0  0  0  0  0  0  0  0  0  0  0  0
   67.6000  149.9730  -48.1260 C   0  0  0  0  0  0  0  0  0  0  0  0
   67.7650  149.0700  -47.0730 C   0  0  0  0  0  0  0  0  0  0  0  0
   69.0250  148.8840  -46.4990 C   0  0  0  0  0  0  0  0  0  0  0  0
   70.1200  149.6150  -46.9700 C   0  0  0  0  0  0  0  0  0  0  0  0
   69.9560  150.5460  -48.0010 C   0  0  0  0  0  0  0  0  0  0  0  0
   65.5120  154.0520  -49.0200 C   0  0  0  0  0  0  0  0  0  0  0  0
   63.7700  154.4070  -47.2170 C   0  0  0  0  0  0  0  0  0  0  0  0
   62.8600  155.4020  -46.7900 C   0  0  0  0  0  0  0  0  0  0  0  0
   62.1820  155.2480  -45.5840 C   0  0  0  0  0  0  0  0  0  0  0  0
   62.4000  154.1150  -44.7900 C   0  0  0  0  0  0  0  0  0  0  0  0
   63.2810  153.1270  -45.2290 C   0  0  0  0  0  0  0  0  0  0  0  0
   63.9570  153.2500  -46.4500 C   0  0  0  0  0  0  0  0  0  0  0  0
   69.2460  151.5740  -50.7210 O   0  0  0  0  0  0  0  0  0  0  0  0
   66.5850  152.8440  -48.1590 S   0  0  0  0  0  0  0  0  0  0  0  0
   67.0930  154.1420  -52.6310 H   0  0  0  0  0  0  0  0  0  0  0  0
   68.2980  152.9380  -52.1470 H   0  0  0  0  0  0  0  0  0  0  0  0
   66.6130  150.0670  -48.5810 H   0  0  0  0  0  0  0  0  0  0  0  0
   66.9110  148.5110  -46.6890 H   0  0  0  0  0  0  0  0  0  0  0  0
   69.1490  148.1620  -45.6880 H   0  0  0  0  0  0  0  0  0  0  0  0
   71.0970  149.4410  -46.5250 H   0  0  0  0  0  0  0  0  0  0  0  0
   70.8080  151.1330  -48.3500 H   0  0  0  0  0  0  0  0  0  0  0  0
   63.8520  155.2930  -49.1040 H   0  0  0  0  0  0  0  0  0  0  0  0
   62.6740  156.2850  -47.4040 H   0  0  0  0  0  0  0  0  0  0  0  0
   61.4770  156.0190  -45.2590 H   0  0  0  0  0  0  0  0  0  0  0  0
   61.8810  154.0080  -43.8360 H   0  0  0  0  0  0  0  0  0  0  0  0
   63.4510  152.2380  -44.6140 H   0  0  0  0  0  0  0  0  0  0  0  0
   64.5870  152.4210  -46.7720 H   0  0  0  0  0  0  0  0  0  0  0  0
  1  4  1  0  0  0  0
  1 13  2  0  0  0  0
  2  4  1  0  0  0  0
  2 22  1  0  0  0  0
  2 23  1  0  0  0  0
  3 13  1  0  0  0  0
  3 14  1  0  0  0  0
  3 29  1  0  0  0  0
  4  5  2  0  0  0  0
  5 21  1  0  0  0  0
  6  5  1  0  0  0  0
  6  7  1  0  0  0  0
  6 20  2  0  0  0  0
  7  8  2  0  0  0  0
  7 12  1  0  0  0  0
  8  9  1  0  0  0  0
  8 24  1  0  0  0  0
  9 10  2  0  0  0  0
  9 25  1  0  0  0  0
 10 11  1  0  0  0  0
 10 26  1  0  0  0  0
 11 12  2  0  0  0  0
 11 27  1  0  0  0  0
 12 28  1  0  0  0  0
 13 21  1  0  0  0  0
 14 15  2  0  0  0  0
 14 19  1  0  0  0  0
 15 16  1  0  0  0  0
 15 30  1  0  0  0  0
 16 17  2  0  0  0  0
 16 31  1  0  0  0  0
 17 18  1  0  0  0  0
 17 32  1  0  0  0  0
 18 19  2  0  0  0  0
 18 33  1  0  0  0  0
 19 34  1  0  0  0  0
M  END
>  <lm5_entropy_jk>
21.136452688881562

>  <number_of_rotatable_bonds>
4

>  <IC50_NM>
930

>  <charge>
0

$$$$
