model22d
 OpenBabel11252210453D

 91 95  0  0  1  0  0  0  0  0999 V2000
    1.8330    2.5590   11.8560 C   0  0  0  0  0  0  0  0  0  0  0  0
    2.5560    1.6380   12.5860 O   0  0  0  0  0  0  0  0  0  0  0  0
    2.4640    3.7060   11.3200 C   0  0  0  0  0  0  0  0  0  0  0  0
    5.1590    0.4420   16.6400 O   0  0  0  0  0  0  0  0  0  0  0  0
    4.0330   -1.5600   12.3690 O   0  0  0  0  0  0  0  0  0  0  0  0
    1.7410    4.5670   10.4860 C   0  0  0  0  0  0  0  0  0  0  0  0
    4.5260    0.0830   13.8430 N   0  0  0  0  0  0  0  0  0  0  0  0
    0.3900    4.3140   10.1970 C   0  0  0  0  0  0  0  0  0  0  0  0
    3.7320   -5.5190   17.1980 C   0  0  0  0  0  0  0  0  0  0  0  0
    5.9100   -3.7050   16.5890 N   0  0  0  0  0  0  0  0  0  0  0  0
   -0.2380    3.1870   10.7500 C   0  0  0  0  0  0  0  0  0  0  0  0
    4.4620   -6.0410   18.2780 C   0  0  0  0  0  0  0  0  0  0  0  0
    6.8770   -3.5340   14.5450 O   0  0  0  0  0  0  0  0  0  0  0  0
    0.4730    2.3090   11.5770 C   0  0  0  0  0  0  0  0  0  0  0  0
    4.5930   -7.4280   18.4450 C   0  0  0  0  0  0  0  0  0  0  0  0
    3.9210    4.0340   11.5920 C   0  0  0  0  0  0  0  0  0  0  0  0
    3.9790   -8.2970   17.5300 C   0  0  0  0  0  0  0  0  0  0  0  0
   -0.2380    1.0810   12.1140 C   0  0  0  0  0  0  0  0  0  0  0  0
    3.2370   -7.7830   16.4570 C   0  0  0  0  0  0  0  0  0  0  0  0
    8.0560  -10.3120   18.1530 C   0  0  0  0  0  0  0  0  0  0  0  0
    3.1160   -6.3920   16.2910 C   0  0  0  0  0  0  0  0  0  0  0  0
    3.3090    0.6560   11.8270 C   0  0  0  0  0  0  0  0  0  0  0  0
    3.9650   -0.3900   12.6940 C   0  0  0  0  0  0  0  0  0  0  0  0
    5.6870   -0.5500   14.4820 C   0  0  1  0  0  0  0  0  0  0  0  0
    6.9420  -11.3590   17.9550 C   0  0  0  0  0  0  0  0  0  0  0  0
    7.9270   -0.0590   10.5570 C   0  0  0  0  0  0  0  0  0  0  0  0
    7.6740    1.2300   10.0610 C   0  0  0  0  0  0  0  0  0  0  0  0
    7.1970    2.2330   10.9190 C   0  0  0  0  0  0  0  0  0  0  0  0
    6.9610    1.9370   12.2720 C   0  0  0  0  0  0  0  0  0  0  0  0
    7.1930    0.6450   12.7670 C   0  0  0  0  0  0  0  0  0  0  0  0
    7.6780   -0.3510   11.9090 C   0  0  0  0  0  0  0  0  0  0  0  0
    6.9390    0.3350   14.2280 C   0  0  0  0  0  0  0  0  0  0  0  0
    5.4810   -0.7930   16.0120 C   0  0  2  0  0  0  0  0  0  0  0  0
    4.3540   -1.7690   16.4120 C   0  0  0  0  0  0  0  0  0  0  0  0
    4.5690   -3.2840   16.1970 C   0  0  2  0  0  0  0  0  0  0  0  0
    6.9200   -3.9460   15.6880 C   0  0  0  0  0  0  0  0  0  0  0  0
    8.0810   -4.8280   16.1630 C   0  0  1  0  0  0  0  0  0  0  0  0
    8.6520   -4.4340   17.4390 O   0  0  0  0  0  0  0  0  0  0  0  0
    3.5380   -4.0220   17.0780 C   0  0  0  0  0  0  0  0  0  0  0  0
    9.0810   -5.5120   18.1550 C   0  0  0  0  0  0  0  0  0  0  0  0
    9.7010   -5.4640   19.2000 O   0  0  0  0  0  0  0  0  0  0  0  0
    8.5560   -6.6430   17.5740 N   0  0  0  0  0  0  0  0  0  0  0  0
    7.7320   -6.3060   16.4060 C   0  0  0  0  0  0  0  0  0  0  0  0
    8.8120   -7.9840   17.9650 C   0  0  0  0  0  0  0  0  0  0  0  0
    7.8220   -8.9640   17.8070 C   0  0  0  0  0  0  0  0  0  0  0  0
    9.3190  -10.6640   18.6750 C   0  0  0  0  0  0  0  0  0  0  0  0
   10.3190   -9.6910   18.8360 C   0  0  0  0  0  0  0  0  0  0  0  0
   10.0660   -8.3590   18.4710 C   0  0  0  0  0  0  0  0  0  0  0  0
    5.8150  -11.0200   18.6200 F   0  0  0  0  0  0  0  0  0  0  0  0
    6.6110  -11.4870   16.6510 F   0  0  0  0  0  0  0  0  0  0  0  0
    7.2920  -12.5910   18.3890 F   0  0  0  0  0  0  0  0  0  0  0  0
    4.5370    3.7970   10.7180 H   0  0  0  0  0  0  0  0  0  0  0  0
    4.3080    3.4520   12.4360 H   0  0  0  0  0  0  0  0  0  0  0  0
    4.0720    5.0930   11.8300 H   0  0  0  0  0  0  0  0  0  0  0  0
    2.2400    5.4200   10.0310 H   0  0  0  0  0  0  0  0  0  0  0  0
    4.3250    1.0520   14.0480 H   0  0  0  0  0  0  0  0  0  0  0  0
    6.0400   -4.0620   17.5250 H   0  0  0  0  0  0  0  0  0  0  0  0
    4.2020   -1.6060   17.4820 H   0  0  0  0  0  0  0  0  0  0  0  0
    4.9080   -5.3700   19.0070 H   0  0  0  0  0  0  0  0  0  0  0  0
    5.1550   -7.8280   19.2890 H   0  0  0  0  0  0  0  0  0  0  0  0
    4.0640   -9.3750   17.6600 H   0  0  0  0  0  0  0  0  0  0  0  0
    2.7530   -8.4670   15.7620 H   0  0  0  0  0  0  0  0  0  0  0  0
    2.5240   -5.9890   15.4740 H   0  0  0  0  0  0  0  0  0  0  0  0
    2.6620    0.1160   11.1290 H   0  0  0  0  0  0  0  0  0  0  0  0
    5.8550   -1.5280   14.0110 H   0  0  0  0  0  0  0  0  0  0  0  0
    4.1090    1.1270   11.2480 H   0  0  0  0  0  0  0  0  0  0  0  0
   -0.1590    4.9760    9.5260 H   0  0  0  0  0  0  0  0  0  0  0  0
   -1.2780    2.9730   10.5170 H   0  0  0  0  0  0  0  0  0  0  0  0
   -1.3080    1.2750   12.2440 H   0  0  0  0  0  0  0  0  0  0  0  0
    0.1650    0.7910   13.0910 H   0  0  0  0  0  0  0  0  0  0  0  0
   -0.1110    0.2310   11.4360 H   0  0  0  0  0  0  0  0  0  0  0  0
    6.0270    0.7210   17.0370 H   0  0  0  0  0  0  0  0  0  0  0  0
    8.3170   -0.8280    9.8950 H   0  0  0  0  0  0  0  0  0  0  0  0
    7.8580    1.4590    9.0120 H   0  0  0  0  0  0  0  0  0  0  0  0
    7.0200    3.2390   10.5380 H   0  0  0  0  0  0  0  0  0  0  0  0
    6.6020    2.7160   12.9400 H   0  0  0  0  0  0  0  0  0  0  0  0
    7.8700   -1.3470   12.2980 H   0  0  0  0  0  0  0  0  0  0  0  0
    7.8220   -0.1520   14.6570 H   0  0  0  0  0  0  0  0  0  0  0  0
    6.8460    1.2680   14.7960 H   0  0  0  0  0  0  0  0  0  0  0  0
    6.4310   -1.1740   16.4220 H   0  0  0  0  0  0  0  0  0  0  0  0
    3.4210   -1.4520   15.9310 H   0  0  0  0  0  0  0  0  0  0  0  0
    4.4030   -3.5420   15.1330 H   0  0  0  0  0  0  0  0  0  0  0  0
    8.8430   -4.7440   15.3740 H   0  0  0  0  0  0  0  0  0  0  0  0
    3.5430   -3.6060   18.0930 H   0  0  0  0  0  0  0  0  0  0  0  0
    2.5290   -3.8150   16.7060 H   0  0  0  0  0  0  0  0  0  0  0  0
    7.9890   -6.9370   15.5410 H   0  0  0  0  0  0  0  0  0  0  0  0
    6.6590   -6.4390   16.6270 H   0  0  0  0  0  0  0  0  0  0  0  0
    6.8520   -8.6800   17.4110 H   0  0  0  0  0  0  0  0  0  0  0  0
    9.5290  -11.6950   18.9620 H   0  0  0  0  0  0  0  0  0  0  0  0
   11.2930   -9.9700   19.2440 H   0  0  0  0  0  0  0  0  0  0  0  0
   10.8530   -7.6180   18.5800 H   0  0  0  0  0  0  0  0  0  0  0  0
  1  3  1  0  0  0  0
  1  2  1  0  0  0  0
  2 22  1  0  0  0  0
  3 16  1  0  0  0  0
  4 72  1  0  0  0  0
  5 23  2  0  0  0  0
  6 55  1  0  0  0  0
  6  3  2  0  0  0  0
  7 24  1  0  0  0  0
  7 56  1  0  0  0  0
  8  6  1  0  0  0  0
  9 39  1  0  0  0  0
  9 12  1  0  0  0  0
 10 57  1  0  0  0  0
 11  8  2  0  0  0  0
 11 14  1  0  0  0  0
 12 59  1  0  0  0  0
 13 36  2  0  0  0  0
 14  1  2  0  0  0  0
 15 12  2  0  0  0  0
 15 60  1  0  0  0  0
 16 54  1  0  0  0  0
 17 15  1  0  0  0  0
 18 14  1  0  0  0  0
 18 70  1  0  0  0  0
 19 21  1  0  0  0  0
 19 17  2  0  0  0  0
 20 46  1  0  0  0  0
 21  9  2  0  0  0  0
 22 64  1  0  0  0  0
 22 23  1  0  0  0  0
 22 66  1  0  0  0  0
 23  7  1  0  0  0  0
 24 65  1  6  0  0  0
 24 33  1  0  0  0  0
 25 51  1  0  0  0  0
 25 20  1  0  0  0  0
 26 31  1  0  0  0  0
 27 26  2  0  0  0  0
 27 28  1  0  0  0  0
 28 29  2  0  0  0  0
 29 30  1  0  0  0  0
 29 76  1  0  0  0  0
 30 32  1  0  0  0  0
 31 77  1  0  0  0  0
 31 30  2  0  0  0  0
 32 78  1  0  0  0  0
 32 24  1  0  0  0  0
 32 79  1  0  0  0  0
 33 80  1  1  0  0  0
 33  4  1  0  0  0  0
 33 34  1  0  0  0  0
 34 58  1  0  0  0  0
 35 82  1  6  0  0  0
 35 34  1  0  0  0  0
 35 10  1  0  0  0  0
 35 39  1  0  0  0  0
 36 10  1  0  0  0  0
 36 37  1  0  0  0  0
 37 83  1  6  0  0  0
 37 38  1  0  0  0  0
 38 40  1  0  0  0  0
 39 84  1  0  0  0  0
 40 41  2  0  0  0  0
 42 44  1  0  0  0  0
 42 40  1  0  0  0  0
 43 37  1  0  0  0  0
 43 42  1  0  0  0  0
 44 48  2  0  0  0  0
 45 20  2  0  0  0  0
 45 44  1  0  0  0  0
 46 89  1  0  0  0  0
 46 47  2  0  0  0  0
 47 90  1  0  0  0  0
 48 47  1  0  0  0  0
 48 91  1  0  0  0  0
 49 25  1  0  0  0  0
 50 25  1  0  0  0  0
 52 16  1  0  0  0  0
 53 16  1  0  0  0  0
 61 17  1  0  0  0  0
 62 19  1  0  0  0  0
 63 21  1  0  0  0  0
 67  8  1  0  0  0  0
 68 11  1  0  0  0  0
 69 18  1  0  0  0  0
 71 18  1  0  0  0  0
 73 26  1  0  0  0  0
 74 27  1  0  0  0  0
 75 28  1  0  0  0  0
 81 34  1  0  0  0  0
 85 39  1  0  0  0  0
 86 43  1  0  0  0  0
 87 43  1  0  0  0  0
 88 45  1  0  0  0  0
M  END
>  <charge>
0

>  <KI_NM>
21.63

>  <number_of_rotatable_bonds>
17

>  <lm5_entropy_jk>
40.025375123851944

>  <ligand_crystal_conformation>
B

$$$$
