2ZQ2
 OpenBabel11252210453D

 67 69  0  0  1  0  0  0  0  0999 V2000
    2.5500   20.7180   18.5100 N   0  0  0  0  0  0  0  0  0  0  0  0
    2.4220   22.0490   15.0130 N   0  3  0  0  0  0  0  0  0  0  0  0
    0.8400   17.5610   19.3770 N   0  0  0  0  0  0  0  0  0  0  0  0
   -1.6080   12.4530   14.8320 N   0  3  0  0  0  0  0  0  0  0  0  0
   -2.8060   14.2310   13.9430 N   0  0  0  0  0  0  0  0  0  0  0  0
    2.4620   19.4040   19.2140 C   0  0  1  0  0  0  0  0  0  0  0  0
    3.1190   19.6350   20.5950 C   0  0  0  0  0  0  0  0  0  0  0  0
    3.2950   21.1570   20.7640 C   0  0  0  0  0  0  0  0  0  0  0  0
    3.1830   21.7770   19.3590 C   0  0  0  0  0  0  0  0  0  0  0  0
    2.4340   22.2190   16.5240 C   0  0  0  0  0  0  0  0  0  0  0  0
    0.9970   18.9490   19.3700 C   0  0  0  0  0  0  0  0  0  0  0  0
    2.1340   20.8800   17.2140 C   0  0  0  0  0  0  0  0  0  0  0  0
   -2.0370   13.7390   14.9550 C   0  0  0  0  0  0  0  0  0  0  0  0
   -0.4880   16.9330   19.5500 C   0  0  0  0  0  0  0  0  0  0  0  0
   -0.8660   16.1230   18.3290 C   0  0  0  0  0  0  0  0  0  0  0  0
   -0.7180   14.7270   18.3530 C   0  0  0  0  0  0  0  0  0  0  0  0
   -1.1040   13.9550   17.2630 C   0  0  0  0  0  0  0  0  0  0  0  0
   -1.6270   14.5680   16.1040 C   0  0  0  0  0  0  0  0  0  0  0  0
   -1.7770   15.9690   16.0860 C   0  0  0  0  0  0  0  0  0  0  0  0
   -1.4010   16.7360   17.1870 C   0  0  0  0  0  0  0  0  0  0  0  0
    3.5650   21.7190   12.8530 C   0  0  0  0  0  0  0  0  0  0  0  0
    4.8050   21.7580   11.9310 C   0  0  0  0  0  0  0  0  0  0  0  0
    5.9470   22.6910   12.3610 C   0  0  0  0  0  0  0  0  0  0  0  0
    7.1300   21.9700   13.0270 C   0  0  0  0  0  0  0  0  0  0  0  0
    6.8370   21.4330   14.4360 C   0  0  0  0  0  0  0  0  0  0  0  0
    5.8670   20.2420   14.4460 C   0  0  0  0  0  0  0  0  0  0  0  0
    4.4770   20.5790   15.0140 C   0  0  0  0  0  0  0  0  0  0  0  0
    3.8330   21.8080   14.3640 C   0  0  0  0  0  0  0  0  0  0  0  0
    0.0510   19.6990   19.5320 O   0  0  0  0  0  0  0  0  0  0  0  0
    1.5350   19.9900   16.6100 O   0  0  0  0  0  0  0  0  0  0  0  0
    3.0370   18.6510   18.6110 H   0  0  0  0  0  0  0  0  0  0  0  0
    4.1150   19.1310   20.6180 H   0  0  0  0  0  0  0  0  0  0  0  0
    2.4910   19.2220   21.4160 H   0  0  0  0  0  0  0  0  0  0  0  0
    2.5040   21.5800   21.4300 H   0  0  0  0  0  0  0  0  0  0  0  0
    4.2910   21.4000   21.2100 H   0  0  0  0  0  0  0  0  0  0  0  0
    2.5490   22.7020   19.3590 H   0  0  0  0  0  0  0  0  0  0  0  0
    4.1980   22.0240   18.9450 H   0  0  0  0  0  0  0  0  0  0  0  0
    1.6310   22.9690   16.8100 H   0  0  0  0  0  0  0  0  0  0  0  0
    3.4180   22.6730   16.8350 H   0  0  0  0  0  0  0  0  0  0  0  0
    1.7810   21.2420   14.7670 H   0  0  0  0  0  0  0  0  0  0  0  0
    2.0220   22.9410   14.5970 H   0  0  0  0  0  0  0  0  0  0  0  0
    1.6310   16.9040   19.2710 H   0  0  0  0  0  0  0  0  0  0  0  0
   -0.4420   16.2610   20.4560 H   0  0  0  0  0  0  0  0  0  0  0  0
   -1.2750   17.7260   19.7200 H   0  0  0  0  0  0  0  0  0  0  0  0
   -0.3110   14.2350   19.2420 H   0  0  0  0  0  0  0  0  0  0  0  0
   -1.0100   12.8700   17.3380 H   0  0  0  0  0  0  0  0  0  0  0  0
   -2.1940   16.4860   15.2190 H   0  0  0  0  0  0  0  0  0  0  0  0
   -1.5430   17.8230   17.1440 H   0  0  0  0  0  0  0  0  0  0  0  0
    5.5530   23.4770   13.0440 H   0  0  0  0  0  0  0  0  0  0  0  0
    6.3340   23.2050   11.4460 H   0  0  0  0  0  0  0  0  0  0  0  0
    7.9720   22.7000   13.1100 H   0  0  0  0  0  0  0  0  0  0  0  0
    7.4530   21.1180   12.3830 H   0  0  0  0  0  0  0  0  0  0  0  0
    6.4430   22.2540   15.0770 H   0  0  0  0  0  0  0  0  0  0  0  0
    7.7940   21.0900   14.8820 H   0  0  0  0  0  0  0  0  0  0  0  0
    6.3040   19.4190   15.0590 H   0  0  0  0  0  0  0  0  0  0  0  0
    5.7450   19.8350   13.4140 H   0  0  0  0  0  0  0  0  0  0  0  0
    3.8210   19.6920   14.8700 H   0  0  0  0  0  0  0  0  0  0  0  0
    4.6010   20.7760   16.1070 H   0  0  0  0  0  0  0  0  0  0  0  0
    4.4280   22.7320   14.6010 H   0  0  0  0  0  0  0  0  0  0  0  0
   -3.1530   13.5830   13.1890 H   0  0  0  0  0  0  0  0  0  0  0  0
   -3.2440   15.1710   13.9870 H   0  0  0  0  0  0  0  0  0  0  0  0
    4.4270   22.0900   10.9310 H   0  0  0  0  0  0  0  0  0  0  0  0
    5.1960   20.7200   11.8140 H   0  0  0  0  0  0  0  0  0  0  0  0
    3.0180   20.7700   12.6330 H   0  0  0  0  0  0  0  0  0  0  0  0
    2.9160   22.5850   12.5580 H   0  0  0  0  0  0  0  0  0  0  0  0
   -0.9420   12.0180   15.5060 H   0  0  0  0  0  0  0  0  0  0  0  0
   -2.0530   11.7950   14.1510 H   0  0  0  0  0  0  0  0  0  0  0  0
  1  6  1  0  0  0  0
  1  9  1  0  0  0  0
  1 12  1  0  0  0  0
  2 10  1  0  0  0  0
  2 28  1  0  0  0  0
  2 40  1  0  0  0  0
  2 41  1  0  0  0  0
  3 11  1  0  0  0  0
  3 14  1  0  0  0  0
  3 42  1  0  0  0  0
  4 13  2  0  0  0  0
  4 66  1  0  0  0  0
  4 67  1  0  0  0  0
  5 13  1  0  0  0  0
  5 60  1  0  0  0  0
  5 61  1  0  0  0  0
  6  7  1  0  0  0  0
  6 11  1  0  0  0  0
  6 31  1  6  0  0  0
  7  8  1  0  0  0  0
  7 32  1  0  0  0  0
  7 33  1  0  0  0  0
  8  9  1  0  0  0  0
  8 34  1  0  0  0  0
  8 35  1  0  0  0  0
  9 36  1  0  0  0  0
  9 37  1  0  0  0  0
 10 12  1  0  0  0  0
 10 38  1  0  0  0  0
 10 39  1  0  0  0  0
 11 29  2  0  0  0  0
 12 30  2  0  0  0  0
 13 18  1  0  0  0  0
 14 15  1  0  0  0  0
 14 43  1  0  0  0  0
 14 44  1  0  0  0  0
 15 16  2  0  0  0  0
 15 20  1  0  0  0  0
 16 17  1  0  0  0  0
 16 45  1  0  0  0  0
 17 18  2  0  0  0  0
 17 46  1  0  0  0  0
 18 19  1  0  0  0  0
 19 20  2  0  0  0  0
 19 47  1  0  0  0  0
 20 48  1  0  0  0  0
 21 22  1  0  0  0  0
 21 28  1  0  0  0  0
 21 64  1  0  0  0  0
 21 65  1  0  0  0  0
 22 23  1  0  0  0  0
 22 62  1  0  0  0  0
 22 63  1  0  0  0  0
 23 24  1  0  0  0  0
 23 49  1  0  0  0  0
 23 50  1  0  0  0  0
 24 25  1  0  0  0  0
 24 51  1  0  0  0  0
 24 52  1  0  0  0  0
 25 26  1  0  0  0  0
 25 53  1  0  0  0  0
 25 54  1  0  0  0  0
 26 27  1  0  0  0  0
 26 55  1  0  0  0  0
 26 56  1  0  0  0  0
 27 28  1  0  0  0  0
 27 57  1  0  0  0  0
 27 58  1  0  0  0  0
 28 59  1  0  0  0  0
M  CHG  2   2   1   4   1
M  END
>  <number_of_rotatable_bonds>
9

>  <lm5_entropy_jk>
23.575177463858182

>  <deltaG_kcalmol>
-8.96

>  <charge>
2

$$$$
