ra8.pdb
 OpenBabel11252210453D

 35 36  0  0  0  0  0  0  0  0999 V2000
   -0.5510   10.5990   13.5470 C   0  0  0  0  0  0  0  0  0  0  0  0
   -2.9170   10.8560   10.7130 N   0  0  0  0  0  0  0  0  0  0  0  0
   -3.4940    8.5670   13.1770 O   0  0  0  0  0  0  0  0  0  0  0  0
   -5.1160    2.6770   16.0960 S   0  0  0  0  0  0  0  0  0  0  0  0
   -1.5180   11.0360   12.5310 C   0  0  0  0  0  0  0  0  0  0  0  0
   -2.0580   10.2040   11.5210 N   0  0  0  0  0  0  0  0  0  0  0  0
   -4.2360    2.9310   17.2480 O   0  0  0  0  0  0  0  0  0  0  0  0
   -2.0820   12.2970   12.2990 C   0  0  0  0  0  0  0  0  0  0  0  0
   -2.8720    6.6150   12.1200 N   0  0  0  0  0  0  0  0  0  0  0  0
   -6.5450    3.0280   16.2210 O   0  0  0  0  0  0  0  0  0  0  0  0
   -2.9370   12.1570   11.1570 C   0  0  0  0  0  0  0  0  0  0  0  0
   -5.1910    1.0750   15.6520 N   0  5  0  0  0  0  0  0  0  0  0  0
   -3.7530   14.2940   11.1010 O   0  5  0  0  0  0  0  0  0  0  0  0
   -1.8710    8.7510   11.3890 C   0  0  0  0  0  0  0  0  0  0  0  0
   -3.7310   13.2130   10.5310 N   0  3  0  0  0  0  0  0  0  0  0  0
   -4.3240   12.9650    9.4960 O   0  0  0  0  0  0  0  0  0  0  0  0
   -2.8260    7.9930   12.3400 C   0  0  0  0  0  0  0  0  0  0  0  0
   -3.4980    5.6640   13.0120 C   0  0  0  0  0  0  0  0  0  0  0  0
   -4.5820    6.0110   13.8300 C   0  0  0  0  0  0  0  0  0  0  0  0
   -5.0880    5.0670   14.7330 C   0  0  0  0  0  0  0  0  0  0  0  0
   -4.5400    3.7850   14.8180 C   0  0  0  0  0  0  0  0  0  0  0  0
   -3.5130    3.4310   13.9430 C   0  0  0  0  0  0  0  0  0  0  0  0
   -2.9840    4.3590   13.0390 C   0  0  0  0  0  0  0  0  0  0  0  0
   -1.8270   13.6950   13.1830 Cl  0  0  0  0  0  0  0  0  0  0  0  0
   -2.2080    6.2200   11.4300 H   0  0  0  0  0  0  0  0  0  0  0  0
   -5.0150    7.0130   13.7810 H   0  0  0  0  0  0  0  0  0  0  0  0
   -5.9220    5.3830   15.3760 H   0  0  0  0  0  0  0  0  0  0  0  0
   -3.0790    2.4280   13.9270 H   0  0  0  0  0  0  0  0  0  0  0  0
   -2.1580    4.0730   12.3830 H   0  0  0  0  0  0  0  0  0  0  0  0
   -0.2330   11.4680   14.1850 H   0  0  0  0  0  0  0  0  0  0  0  0
    0.3750   10.1830   13.0660 H   0  0  0  0  0  0  0  0  0  0  0  0
   -0.9840    9.8150   14.2190 H   0  0  0  0  0  0  0  0  0  0  0  0
   -4.2760    0.6180   16.0010 H   0  0  0  0  0  0  0  0  0  0  0  0
   -0.7990    8.4820   11.6320 H   0  0  0  0  0  0  0  0  0  0  0  0
   -2.0440    8.4270   10.3170 H   0  0  0  0  0  0  0  0  0  0  0  0
  1  5  1  0  0  0  0
  2  6  1  0  0  0  0
  2 11  2  0  0  0  0
  3 17  2  0  0  0  0
  4  7  2  0  0  0  0
  4 10  2  0  0  0  0
  4 12  1  0  0  0  0
  4 21  1  0  0  0  0
  5  6  1  0  0  0  0
  5  8  2  0  0  0  0
  6 14  1  0  0  0  0
  8 11  1  0  0  0  0
  8 24  1  0  0  0  0
  9 17  1  0  0  0  0
  9 18  1  0  0  0  0
 11 15  1  0  0  0  0
 13 15  1  0  0  0  0
 14 17  1  0  0  0  0
 15 16  2  0  0  0  0
 18 19  2  0  0  0  0
 18 23  1  0  0  0  0
 19 20  1  0  0  0  0
 20 21  2  0  0  0  0
 21 22  1  0  0  0  0
 22 23  2  0  0  0  0
 25  9  1  0  0  0  0
 26 19  1  0  0  0  0
 27 20  1  0  0  0  0
 28 22  1  0  0  0  0
 29 23  1  0  0  0  0
 30  1  1  0  0  0  0
 31  1  1  0  0  0  0
 32  1  1  0  0  0  0
 33 12  1  0  0  0  0
 34 14  1  0  0  0  0
 35 14  1  0  0  0  0
M  CHG  3  12  -1  13  -1  15   1
M  END
>  <deltaG_kcalmol>
-11.5

>  <number_of_rotatable_bonds>
6

>  <charge>
-1

>  <lm5_entropy_jk>
29.078390290150285

$$$$
