5NXP
 OpenBabel11252210453D

 38 39  0  0  0  0  0  0  0  0999 V2000
   -2.0970    8.1940   11.6500 N   0  0  0  0  0  0  0  0  0  0  0  0
   -3.8780    6.4020   12.6400 N   0  0  0  0  0  0  0  0  0  0  0  0
   -5.6820    1.2450   16.0490 N   0  5  0  0  0  0  0  0  0  0  0  0
   -3.5230    8.3060   11.1980 C   0  0  0  0  0  0  0  0  0  0  0  0
   -1.2370    7.3760   10.7660 C   0  0  0  0  0  0  0  0  0  0  0  0
   -4.4050    5.4720   13.5380 C   0  0  0  0  0  0  0  0  0  0  0  0
   -1.5640    9.0680   12.6060 C   0  0  0  0  0  0  0  0  0  0  0  0
   -0.4140    9.8200   12.3210 C   0  0  0  0  0  0  0  0  0  0  0  0
    0.1070   10.7250   13.2620 C   0  0  0  0  0  0  0  0  0  0  0  0
   -0.5280   10.8730   14.5040 C   0  0  0  0  0  0  0  0  0  0  0  0
   -1.6660   10.1100   14.8100 C   0  0  0  0  0  0  0  0  0  0  0  0
   -2.1800    9.2170   13.8560 C   0  0  0  0  0  0  0  0  0  0  0  0
   -5.5850    5.7090   14.2400 C   0  0  0  0  0  0  0  0  0  0  0  0
   -6.0320    4.8060   15.2110 C   0  0  0  0  0  0  0  0  0  0  0  0
   -5.2800    3.6470   15.4620 C   0  0  0  0  0  0  0  0  0  0  0  0
   -4.0740    3.4140   14.7860 C   0  0  0  0  0  0  0  0  0  0  0  0
   -3.6580    4.3320   13.8160 C   0  0  0  0  0  0  0  0  0  0  0  0
   -4.4840    7.3630   11.8950 C   0  0  0  0  0  0  0  0  0  0  0  0
   -5.6910    7.4620   11.7750 O   0  0  0  0  0  0  0  0  0  0  0  0
   -4.7280    2.7230   17.7440 O   0  0  0  0  0  0  0  0  0  0  0  0
   -7.1220    2.9940   17.1020 O   0  0  0  0  0  0  0  0  0  0  0  0
   -5.7760    2.6060   16.7700 S   0  0  0  0  0  0  0  0  0  0  0  0
   -2.8700    6.4730   12.6070 H   0  0  0  0  0  0  0  0  0  0  0  0
   -4.8520    1.1480   16.6920 H   0  0  0  0  0  0  0  0  0  0  0  0
    0.0670    9.7170   11.3510 H   0  0  0  0  0  0  0  0  0  0  0  0
    0.9950   11.3150   13.0250 H   0  0  0  0  0  0  0  0  0  0  0  0
   -2.7240    4.1640   13.2870 H   0  0  0  0  0  0  0  0  0  0  0  0
   -1.7190    6.4280   10.4860 H   0  0  0  0  0  0  0  0  0  0  0  0
   -0.2900    7.1210   11.2650 H   0  0  0  0  0  0  0  0  0  0  0  0
   -0.9890    7.9180    9.8420 H   0  0  0  0  0  0  0  0  0  0  0  0
   -3.6260    8.1130   10.1240 H   0  0  0  0  0  0  0  0  0  0  0  0
   -3.9130    9.3140   11.3780 H   0  0  0  0  0  0  0  0  0  0  0  0
   -0.1320   11.5770   15.2350 H   0  0  0  0  0  0  0  0  0  0  0  0
   -2.1490   10.2140   15.7810 H   0  0  0  0  0  0  0  0  0  0  0  0
   -3.0590    8.6270   14.0950 H   0  0  0  0  0  0  0  0  0  0  0  0
   -6.1390    6.6250   14.0660 H   0  0  0  0  0  0  0  0  0  0  0  0
   -6.9320    5.0380   15.7890 H   0  0  0  0  0  0  0  0  0  0  0  0
   -3.4510    2.5480   15.0170 H   0  0  0  0  0  0  0  0  0  0  0  0
  1  4  1  0  0  0  0
  1  5  1  0  0  0  0
  1  7  1  0  0  0  0
  3 22  1  0  0  0  0
  4 18  1  0  0  0  0
  6  2  1  0  0  0  0
  6 13  2  0  0  0  0
  6 17  1  0  0  0  0
  7  8  2  0  0  0  0
  7 12  1  0  0  0  0
  8  9  1  0  0  0  0
  9 10  2  0  0  0  0
 10 11  1  0  0  0  0
 11 12  2  0  0  0  0
 13 14  1  0  0  0  0
 14 15  2  0  0  0  0
 15 16  1  0  0  0  0
 15 22  1  0  0  0  0
 16 17  2  0  0  0  0
 18  2  1  0  0  0  0
 18 19  2  0  0  0  0
 20 22  2  0  0  0  0
 21 22  2  0  0  0  0
 23  2  1  0  0  0  0
 24  3  1  0  0  0  0
 25  8  1  0  0  0  0
 26  9  1  0  0  0  0
 27 17  1  0  0  0  0
 28  5  1  0  0  0  0
 29  5  1  0  0  0  0
 30  5  1  0  0  0  0
 31  4  1  0  0  0  0
 32  4  1  0  0  0  0
 33 10  1  0  0  0  0
 34 11  1  0  0  0  0
 35 12  1  0  0  0  0
 36 13  1  0  0  0  0
 37 14  1  0  0  0  0
 38 16  1  0  0  0  0
M  CHG  1   3  -1
M  END
>  <deltaG_kcalmol>
-10.9

>  <number_of_rotatable_bonds>
6

>  <charge>
-1

>  <lm5_entropy_jk>
29.891156435929506

$$$$
