2ZHD
 OpenBabel11252210453D

 64 66  0  0  1  0  0  0  0  0999 V2000
    2.7380   20.8270   18.6090 N   0  0  0  0  0  0  0  0  0  0  0  0
   -1.5690   12.3820   14.9550 N   0  3  0  0  0  0  0  0  0  0  0  0
   -2.5660   14.2520   13.9170 N   0  0  0  0  0  0  0  0  0  0  0  0
    3.7960   22.4850   15.3620 N   0  3  0  0  0  0  0  0  0  0  0  0
    0.8960   17.6290   19.3750 N   0  0  0  0  0  0  0  0  0  0  0  0
    2.5470   19.4320   19.0810 C   0  0  1  0  0  0  0  0  0  0  0  0
    3.1970   19.3850   20.4910 C   0  0  0  0  0  0  0  0  0  0  0  0
    3.1110   20.8420   21.0010 C   0  0  0  0  0  0  0  0  0  0  0  0
    3.1730   21.7050   19.7240 C   0  0  0  0  0  0  0  0  0  0  0  0
    3.4660   22.4140   16.8870 C   0  0  0  0  0  0  0  0  0  0  0  0
    1.0680   18.9700   19.0810 C   0  0  0  0  0  0  0  0  0  0  0  0
   -1.9440   13.6940   15.0010 C   0  0  0  0  0  0  0  0  0  0  0  0
    2.7270   21.1570   17.2590 C   0  0  0  0  0  0  0  0  0  0  0  0
   -0.4340   16.9880   19.5770 C   0  0  0  0  0  0  0  0  0  0  0  0
   -0.8310   16.1250   18.4010 C   0  0  0  0  0  0  0  0  0  0  0  0
   -0.8110   14.7300   18.4970 C   0  0  0  0  0  0  0  0  0  0  0  0
   -1.1730   13.9360   17.3970 C   0  0  0  0  0  0  0  0  0  0  0  0
   -1.5600   14.5340   16.1720 C   0  0  0  0  0  0  0  0  0  0  0  0
   -1.5860   15.9460   16.0970 C   0  0  0  0  0  0  0  0  0  0  0  0
   -1.2190   16.7270   17.2020 C   0  0  0  0  0  0  0  0  0  0  0  0
    6.9370   20.8720   13.2730 C   0  0  0  0  0  0  0  0  0  0  0  0
    6.3260   20.8570   14.7010 C   0  0  0  0  0  0  0  0  0  0  0  0
    6.3430   22.2440   15.4330 C   0  0  0  0  0  0  0  0  0  0  0  0
    5.1250   23.1710   15.1390 C   0  0  0  0  0  0  0  0  0  0  0  0
    5.2170   23.7970   13.7310 C   0  0  0  0  0  0  0  0  0  0  0  0
    5.3630   22.7840   12.5630 C   0  0  0  0  0  0  0  0  0  0  0  0
    6.8020   22.2150   12.5160 C   0  0  0  0  0  0  0  0  0  0  0  0
    0.1140   19.7090   18.8890 O   0  0  0  0  0  0  0  0  0  0  0  0
    2.2820   20.4180   16.4020 O   0  0  0  0  0  0  0  0  0  0  0  0
    3.0450   18.7430   18.3890 H   0  0  0  0  0  0  0  0  0  0  0  0
    4.2480   19.0680   20.4200 H   0  0  0  0  0  0  0  0  0  0  0  0
    2.6790   18.6820   21.1600 H   0  0  0  0  0  0  0  0  0  0  0  0
    2.1480   21.0160   21.5090 H   0  0  0  0  0  0  0  0  0  0  0  0
    3.9020   21.1070   21.7230 H   0  0  0  0  0  0  0  0  0  0  0  0
    2.5180   22.5900   19.8090 H   0  0  0  0  0  0  0  0  0  0  0  0
    4.2040   22.0580   19.5640 H   0  0  0  0  0  0  0  0  0  0  0  0
    2.8400   23.2570   17.1920 H   0  0  0  0  0  0  0  0  0  0  0  0
    4.3850   22.4180   17.4700 H   0  0  0  0  0  0  0  0  0  0  0  0
    3.8380   21.5460   14.9320 H   0  0  0  0  0  0  0  0  0  0  0  0
    3.0540   22.9740   14.8280 H   0  0  0  0  0  0  0  0  0  0  0  0
    1.7350   17.0560   19.4640 H   0  0  0  0  0  0  0  0  0  0  0  0
   -0.4290   16.3830   20.4960 H   0  0  0  0  0  0  0  0  0  0  0  0
   -1.2110   17.7580   19.7150 H   0  0  0  0  0  0  0  0  0  0  0  0
   -0.5170   14.2600   19.4330 H   0  0  0  0  0  0  0  0  0  0  0  0
   -1.1580   12.8560   17.5170 H   0  0  0  0  0  0  0  0  0  0  0  0
   -1.8810   16.4640   15.1880 H   0  0  0  0  0  0  0  0  0  0  0  0
   -1.2370   17.8150   17.1310 H   0  0  0  0  0  0  0  0  0  0  0  0
    8.0060   20.6240   13.3420 H   0  0  0  0  0  0  0  0  0  0  0  0
    6.4940   20.0530   12.6870 H   0  0  0  0  0  0  0  0  0  0  0  0
    6.9080   20.1260   15.2830 H   0  0  0  0  0  0  0  0  0  0  0  0
    5.3150   20.4310   14.6590 H   0  0  0  0  0  0  0  0  0  0  0  0
    7.2690   22.7820   15.1860 H   0  0  0  0  0  0  0  0  0  0  0  0
    6.4090   22.0890   16.5170 H   0  0  0  0  0  0  0  0  0  0  0  0
    5.1580   24.0130   15.8470 H   0  0  0  0  0  0  0  0  0  0  0  0
    4.3400   24.4400   13.5590 H   0  0  0  0  0  0  0  0  0  0  0  0
    6.0620   24.5020   13.7160 H   0  0  0  0  0  0  0  0  0  0  0  0
    4.6200   21.9770   12.6350 H   0  0  0  0  0  0  0  0  0  0  0  0
    5.1510   23.3070   11.6160 H   0  0  0  0  0  0  0  0  0  0  0  0
    7.5130   22.9440   12.9320 H   0  0  0  0  0  0  0  0  0  0  0  0
    7.1400   22.0990   11.4800 H   0  0  0  0  0  0  0  0  0  0  0  0
   -3.0110   15.1590   14.0320 H   0  0  0  0  0  0  0  0  0  0  0  0
   -2.9940   13.6080   13.2490 H   0  0  0  0  0  0  0  0  0  0  0  0
   -0.9930   11.9890   15.6960 H   0  0  0  0  0  0  0  0  0  0  0  0
   -2.0610   11.7430   14.3310 H   0  0  0  0  0  0  0  0  0  0  0  0
  1  6  1  0  0  0  0
  1  9  1  0  0  0  0
  1 13  1  0  0  0  0
  2 12  2  0  0  0  0
  2 63  1  0  0  0  0
  2 64  1  0  0  0  0
  3 12  1  0  0  0  0
  3 61  1  0  0  0  0
  3 62  1  0  0  0  0
  4 10  1  0  0  0  0
  4 24  1  0  0  0  0
  4 39  1  0  0  0  0
  4 40  1  0  0  0  0
  5 11  1  0  0  0  0
  5 14  1  0  0  0  0
  5 41  1  0  0  0  0
  6  7  1  0  0  0  0
  6 11  1  0  0  0  0
  6 30  1  6  0  0  0
  7  8  1  0  0  0  0
  7 31  1  0  0  0  0
  7 32  1  0  0  0  0
  8  9  1  0  0  0  0
  8 33  1  0  0  0  0
  8 34  1  0  0  0  0
  9 35  1  0  0  0  0
  9 36  1  0  0  0  0
 10 13  1  0  0  0  0
 10 37  1  0  0  0  0
 10 38  1  0  0  0  0
 11 28  2  0  0  0  0
 12 18  1  0  0  0  0
 13 29  2  0  0  0  0
 14 15  1  0  0  0  0
 14 42  1  0  0  0  0
 14 43  1  0  0  0  0
 15 16  2  0  0  0  0
 15 20  1  0  0  0  0
 16 17  1  0  0  0  0
 16 44  1  0  0  0  0
 17 18  2  0  0  0  0
 17 45  1  0  0  0  0
 18 19  1  0  0  0  0
 19 20  2  0  0  0  0
 19 46  1  0  0  0  0
 20 47  1  0  0  0  0
 21 22  1  0  0  0  0
 21 27  1  0  0  0  0
 21 48  1  0  0  0  0
 21 49  1  0  0  0  0
 22 23  1  0  0  0  0
 22 50  1  0  0  0  0
 22 51  1  0  0  0  0
 23 24  1  0  0  0  0
 23 52  1  0  0  0  0
 23 53  1  0  0  0  0
 24 25  1  0  0  0  0
 24 54  1  0  0  0  0
 25 26  1  0  0  0  0
 25 55  1  0  0  0  0
 25 56  1  0  0  0  0
 26 27  1  0  0  0  0
 26 57  1  0  0  0  0
 26 58  1  0  0  0  0
 27 59  1  0  0  0  0
 27 60  1  0  0  0  0
M  CHG  2   2   1   4   1
M  END
>  <number_of_rotatable_bonds>
9

>  <lm5_entropy_jk>
23.69757746385818

>  <deltaG_kcalmol>
-8.93

>  <charge>
2

$$$$
