2IKH.pdb
 OpenBabel11252210453D

 22 23  0  0  0  0  0  0  0  0999 V2000
   16.7810   -4.3750   10.8900 C   0  0  0  0  0  0  0  0  0  0  0  0
   15.4270   -4.6370   10.7950 C   0  0  0  0  0  0  0  0  0  0  0  0
   15.1090   -5.4980   11.8890 C   0  0  0  0  0  0  0  0  0  0  0  0
   16.2770   -5.6860   12.6110 C   0  0  0  0  0  0  0  0  0  0  0  0
   16.6680   -6.2580   13.8650 C   0  0  0  0  0  0  0  0  0  0  0  0
   17.7990   -6.0580   14.5810 N   0  0  0  0  0  0  0  0  0  0  0  0
   17.7040   -6.7260   15.7290 N   0  0  0  0  0  0  0  0  0  0  0  0
   16.4980   -7.3550   15.7830 C   0  0  0  0  0  0  0  0  0  0  0  0
   15.8360   -8.4340   17.0180 S   0  0  0  0  0  0  0  0  0  0  0  0
   16.1700   -7.4840   18.5100 C   0  0  0  0  0  0  0  0  0  0  0  0
   15.5220   -6.0600   18.3980 C   0  0  0  0  0  0  0  0  0  0  0  0
   15.0560   -5.5560   19.4330 O   0  5  0  0  0  0  0  0  0  0  0  0
   15.5020   -5.5650   17.2540 O   0  0  0  0  0  0  0  0  0  0  0  0
   15.7920   -7.0920   14.5940 O   0  0  0  0  0  0  0  0  0  0  0  0
   17.3540   -5.0350   11.9900 O   0  0  0  0  0  0  0  0  0  0  0  0
   17.7270   -3.5600   10.1640 N   0  3  0  0  0  0  0  0  0  0  0  0
   17.2750   -2.7340    9.3810 O   0  5  0  0  0  0  0  0  0  0  0  0
   18.9160   -3.7600   10.3560 O   0  0  0  0  0  0  0  0  0  0  0  0
   15.7610   -8.0990   19.3470 H   0  0  0  0  0  0  0  0  0  0  0  0
   17.2710   -7.4000   18.6880 H   0  0  0  0  0  0  0  0  0  0  0  0
   14.1160   -5.8670   12.0950 H   0  0  0  0  0  0  0  0  0  0  0  0
   14.7260   -4.2550   10.0670 H   0  0  0  0  0  0  0  0  0  0  0  0
  1  2  2  0  0  0  0
  1 15  1  0  0  0  0
  2  3  1  0  0  0  0
  3 21  1  0  0  0  0
  3  4  2  0  0  0  0
  4  5  1  0  0  0  0
  5  6  2  0  0  0  0
  5 14  1  0  0  0  0
  6  7  1  0  0  0  0
  7  8  2  0  0  0  0
  8  9  1  0  0  0  0
  9 10  1  0  0  0  0
 10 19  1  0  0  0  0
 11 10  1  0  0  0  0
 11 12  1  0  0  0  0
 13 11  2  0  0  0  0
 14  8  1  0  0  0  0
 15  4  1  0  0  0  0
 16 18  2  0  0  0  0
 16  1  1  0  0  0  0
 17 16  1  0  0  0  0
 20 10  1  0  0  0  0
 22  2  1  0  0  0  0
M  CHG  3  12  -1  16   1  17  -1
M  END
>  <lm5_entropy_jk>
25.077845360290652

>  <number_of_rotatable_bonds>
5

>  <deltaG_kcalmol>
-7.48

>  <charge>
-1

$$$$
