2IKI
 OpenBabel11252210453D

 35 36  0  0  0  0  0  0  0  0999 V2000
   18.4110   -6.6340   14.3230 C   0  0  0  0  0  0  0  0  0  0  0  0
   17.5380   -7.4610   15.1740 N   0  0  0  0  0  0  0  0  0  0  0  0
   17.6020   -8.8510   15.1220 C   0  0  0  0  0  0  0  0  0  0  0  0
   18.2740   -9.4290   14.2690 O   0  0  0  0  0  0  0  0  0  0  0  0
   17.6840   -5.9980   13.1560 C   0  0  0  0  0  0  0  0  0  0  0  0
   18.3290   -5.0170   12.3780 C   0  0  0  0  0  0  0  0  0  0  0  0
   19.5930   -4.7010   12.6630 F   0  0  0  0  0  0  0  0  0  0  0  0
   17.7180   -4.3350   11.3240 C   0  0  0  0  0  0  0  0  0  0  0  0
   16.3890   -4.6600   11.0540 C   0  0  0  0  0  0  0  0  0  0  0  0
   15.4370   -3.6430    9.7350 Br  0  0  0  0  0  0  0  0  0  0  0  0
   15.7110   -5.6520   11.7590 C   0  0  0  0  0  0  0  0  0  0  0  0
   16.3650   -6.3140   12.8070 C   0  0  0  0  0  0  0  0  0  0  0  0
   16.7970   -9.6070   16.1230 C   0  0  0  0  0  0  0  0  0  0  0  0
   16.4540  -10.9340   15.8360 C   0  0  0  0  0  0  0  0  0  0  0  0
   15.6570  -11.6820   16.7080 C   0  0  0  0  0  0  0  0  0  0  0  0
   15.1920  -11.0610   17.8650 C   0  0  0  0  0  0  0  0  0  0  0  0
   14.1430  -11.9520   18.9220 Cl  0  0  0  0  0  0  0  0  0  0  0  0
   15.5190   -9.7620   18.2190 C   0  0  0  0  0  0  0  0  0  0  0  0
   16.3830   -9.0480   17.3660 C   0  0  0  0  0  0  0  0  0  0  0  0
   16.9340   -7.8490   17.6260 O   0  0  0  0  0  0  0  0  0  0  0  0
   16.6250   -7.0860   18.8320 C   0  0  0  0  0  0  0  0  0  0  0  0
   15.5600   -5.9900   18.4610 C   0  0  0  0  0  0  0  0  0  0  0  0
   15.3350   -5.7790   17.2610 O   0  5  0  0  0  0  0  0  0  0  0  0
   15.0190   -5.4530   19.4460 O   0  0  0  0  0  0  0  0  0  0  0  0
   16.9820   -6.9530   15.8830 H   0  0  0  0  0  0  0  0  0  0  0  0
   16.2960   -7.7450   19.6490 H   0  0  0  0  0  0  0  0  0  0  0  0
   17.6290   -6.6600   19.0500 H   0  0  0  0  0  0  0  0  0  0  0  0
   16.7960  -11.4070   14.9070 H   0  0  0  0  0  0  0  0  0  0  0  0
   18.2350   -3.5510   10.7670 H   0  0  0  0  0  0  0  0  0  0  0  0
   14.6700   -5.8940   11.5240 H   0  0  0  0  0  0  0  0  0  0  0  0
   15.8120   -7.0740   13.3680 H   0  0  0  0  0  0  0  0  0  0  0  0
   15.1410   -9.3350   19.1450 H   0  0  0  0  0  0  0  0  0  0  0  0
   18.8450   -5.8180   14.9680 H   0  0  0  0  0  0  0  0  0  0  0  0
   19.2550   -7.2720   13.9320 H   0  0  0  0  0  0  0  0  0  0  0  0
   15.4030  -12.7180   16.4760 H   0  0  0  0  0  0  0  0  0  0  0  0
  1 33  1  0  0  0  0
  1  2  1  0  0  0  0
  2 25  1  0  0  0  0
  3  2  1  0  0  0  0
  3 13  1  0  0  0  0
  4  3  2  0  0  0  0
  5  1  1  0  0  0  0
  6  7  1  0  0  0  0
  6  5  2  0  0  0  0
  8  6  1  0  0  0  0
  9  8  2  0  0  0  0
  9 11  1  0  0  0  0
 10  9  1  0  0  0  0
 11 12  2  0  0  0  0
 12  5  1  0  0  0  0
 12 31  1  0  0  0  0
 13 19  1  0  0  0  0
 14 13  2  0  0  0  0
 14 15  1  0  0  0  0
 15 16  2  0  0  0  0
 16 18  1  0  0  0  0
 16 17  1  0  0  0  0
 18 32  1  0  0  0  0
 19 20  1  0  0  0  0
 19 18  2  0  0  0  0
 20 21  1  0  0  0  0
 21 27  1  0  0  0  0
 21 26  1  0  0  0  0
 22 21  1  0  0  0  0
 22 24  2  0  0  0  0
 23 22  1  0  0  0  0
 28 14  1  0  0  0  0
 29  8  1  0  0  0  0
 30 11  1  0  0  0  0
 34  1  1  0  0  0  0
 35 15  1  0  0  0  0
M  CHG  1  23  -1
M  END
>  <lm5_entropy_jk>
25.63780735381752

>  <number_of_rotatable_bonds>
7

>  <deltaG_kcalmol>
-10.21

>  <charge>
-1

$$$$
