ra7.pdb
 OpenBabel11252210453D

 38 39  0  0  0  0  0  0  0  0999 V2000
   -2.1400    8.5170   11.4380 N   0  0  0  0  0  0  0  0  0  0  0  0
   -3.6880    6.7950   12.9190 N   0  0  0  0  0  0  0  0  0  0  0  0
   -5.4840    1.0120   15.9780 N   0  5  0  0  0  0  0  0  0  0  0  0
   -3.6190    8.6630   11.2600 C   0  0  0  0  0  0  0  0  0  0  0  0
   -1.4590    8.1030   10.1800 C   0  0  0  0  0  0  0  0  0  0  0  0
   -4.2250    5.7760   13.7840 C   0  0  0  0  0  0  0  0  0  0  0  0
   -1.5000    9.5560   12.2030 C   0  0  0  0  0  0  0  0  0  0  0  0
   -0.3900   10.2860   11.7370 C   0  0  0  0  0  0  0  0  0  0  0  0
    0.2680   11.1840   12.5830 C   0  0  0  0  0  0  0  0  0  0  0  0
   -0.1710   11.3770   13.8930 C   0  0  0  0  0  0  0  0  0  0  0  0
   -1.2800   10.6600   14.3610 C   0  0  0  0  0  0  0  0  0  0  0  0
   -1.9450    9.7620   13.5310 C   0  0  0  0  0  0  0  0  0  0  0  0
   -5.4260    5.9510   14.4860 C   0  0  0  0  0  0  0  0  0  0  0  0
   -5.8450    4.9510   15.3720 C   0  0  0  0  0  0  0  0  0  0  0  0
   -5.0940    3.7880   15.5480 C   0  0  0  0  0  0  0  0  0  0  0  0
   -3.8930    3.6330   14.8560 C   0  0  0  0  0  0  0  0  0  0  0  0
   -3.4570    4.6140   13.9640 C   0  0  0  0  0  0  0  0  0  0  0  0
   -4.4070    7.5790   12.0210 C   0  0  0  0  0  0  0  0  0  0  0  0
   -5.6130    7.4440   11.8510 O   0  0  0  0  0  0  0  0  0  0  0  0
   -4.9720    2.7310   17.9130 O   0  0  0  0  0  0  0  0  0  0  0  0
   -7.1450    2.6390   16.5720 O   0  0  0  0  0  0  0  0  0  0  0  0
   -5.6760    2.5200   16.6450 S   0  0  0  0  0  0  0  0  0  0  0  0
   -2.6550    6.8270   12.8600 H   0  0  0  0  0  0  0  0  0  0  0  0
   -4.5540    0.6070   16.3600 H   0  0  0  0  0  0  0  0  0  0  0  0
   -0.0220   10.1740   10.7140 H   0  0  0  0  0  0  0  0  0  0  0  0
    1.1310   11.7420   12.2060 H   0  0  0  0  0  0  0  0  0  0  0  0
   -2.5190    4.4810   13.4190 H   0  0  0  0  0  0  0  0  0  0  0  0
   -1.9370    7.1530    9.8200 H   0  0  0  0  0  0  0  0  0  0  0  0
   -0.3840    7.8760   10.4000 H   0  0  0  0  0  0  0  0  0  0  0  0
   -1.5090    8.8650    9.3610 H   0  0  0  0  0  0  0  0  0  0  0  0
   -3.8980    8.5910   10.1700 H   0  0  0  0  0  0  0  0  0  0  0  0
   -3.9840    9.6620   11.6200 H   0  0  0  0  0  0  0  0  0  0  0  0
    0.3460   12.0840   14.5450 H   0  0  0  0  0  0  0  0  0  0  0  0
   -1.6210   10.8050   15.3890 H   0  0  0  0  0  0  0  0  0  0  0  0
   -2.8010    9.2070   13.9220 H   0  0  0  0  0  0  0  0  0  0  0  0
   -6.0040    6.8680   14.3690 H   0  0  0  0  0  0  0  0  0  0  0  0
   -6.7700    5.1210   15.9370 H   0  0  0  0  0  0  0  0  0  0  0  0
   -3.2610    2.7500   14.9800 H   0  0  0  0  0  0  0  0  0  0  0  0
  1  4  1  0  0  0  0
  1  5  1  0  0  0  0
  1  7  1  0  0  0  0
  3 22  1  0  0  0  0
  4 18  1  0  0  0  0
  6  2  1  0  0  0  0
  6 13  2  0  0  0  0
  6 17  1  0  0  0  0
  7  8  2  0  0  0  0
  7 12  1  0  0  0  0
  8  9  1  0  0  0  0
  9 10  2  0  0  0  0
 10 11  1  0  0  0  0
 11 12  2  0  0  0  0
 13 14  1  0  0  0  0
 14 15  2  0  0  0  0
 15 16  1  0  0  0  0
 15 22  1  0  0  0  0
 16 17  2  0  0  0  0
 18  2  1  0  0  0  0
 18 19  2  0  0  0  0
 20 22  2  0  0  0  0
 21 22  2  0  0  0  0
 23  2  1  0  0  0  0
 24  3  1  0  0  0  0
 25  8  1  0  0  0  0
 26  9  1  0  0  0  0
 27 17  1  0  0  0  0
 28  5  1  0  0  0  0
 29  5  1  0  0  0  0
 30  5  1  0  0  0  0
 31  4  1  0  0  0  0
 32  4  1  0  0  0  0
 33 10  1  0  0  0  0
 34 11  1  0  0  0  0
 35 12  1  0  0  0  0
 36 13  1  0  0  0  0
 37 14  1  0  0  0  0
 38 16  1  0  0  0  0
M  CHG  1   3  -1
M  END
>  <deltaG_kcalmol>
-10.9

>  <number_of_rotatable_bonds>
6

>  <charge>
-1

>  <lm5_entropy_jk>
29.891156435929506

$$$$
