3R9N
 OpenBabel11252210453D

 42 44  0  0  1  0  0  0  0  0999 V2000
   68.2970  151.0920  -43.7480 N   0  3  0  0  0  0  0  0  0  0  0  0
   65.7950  154.0550  -49.8290 N   0  0  0  0  0  0  0  0  0  0  0  0
   64.0310  154.4730  -48.3720 N   0  0  0  0  0  0  0  0  0  0  0  0
   67.6080  153.3320  -51.0480 N   0  0  0  0  0  0  0  0  0  0  0  0
   68.8100  149.1250  -45.2200 C   0  0  0  0  0  0  0  0  0  0  0  0
   68.4940  150.4910  -45.0930 C   0  0  0  0  0  0  0  0  0  0  0  0
   68.3530  151.2890  -46.2480 C   0  0  0  0  0  0  0  0  0  0  0  0
   68.5060  150.7250  -47.5330 C   0  0  0  0  0  0  0  0  0  0  0  0
   68.8740  149.3710  -47.6490 C   0  0  0  0  0  0  0  0  0  0  0  0
   69.0220  148.5790  -46.4960 C   0  0  0  0  0  0  0  0  0  0  0  0
   68.3250  151.5430  -48.7840 C   0  0  0  0  0  0  0  0  0  0  0  0
   67.1810  152.4590  -48.8510 C   0  0  0  0  0  0  0  0  0  0  0  0
   66.9110  153.2700  -49.9120 C   0  0  0  0  0  0  0  0  0  0  0  0
   65.1740  153.8030  -48.6950 C   0  0  0  0  0  0  0  0  0  0  0  0
   63.5060  154.5710  -47.0150 C   0  0  0  0  0  0  0  0  0  0  0  0
   62.3690  153.5870  -46.8060 C   0  0  0  0  0  0  0  0  0  0  0  0
   61.8280  153.6900  -45.3510 C   0  0  0  0  0  0  0  0  0  0  0  0
   61.3370  155.1250  -45.0420 C   0  0  0  0  0  0  0  0  0  0  0  0
   62.4300  156.1770  -45.3320 C   0  0  0  0  0  0  0  0  0  0  0  0
   63.0080  156.0000  -46.7620 C   0  0  0  0  0  0  0  0  0  0  0  0
   68.5340  152.2880  -43.6180 O   0  5  0  0  0  0  0  0  0  0  0  0
   67.9840  150.3510  -42.8200 O   0  0  0  0  0  0  0  0  0  0  0  0
   69.1050  151.4250  -49.7130 O   0  0  0  0  0  0  0  0  0  0  0  0
   65.8760  152.5480  -47.6970 S   0  0  0  0  0  0  0  0  0  0  0  0
   68.9040  148.4890  -44.3370 H   0  0  0  0  0  0  0  0  0  0  0  0
   68.1070  152.3440  -46.1440 H   0  0  0  0  0  0  0  0  0  0  0  0
   63.6540  155.0920  -49.0870 H   0  0  0  0  0  0  0  0  0  0  0  0
   67.1660  153.7570  -51.8470 H   0  0  0  0  0  0  0  0  0  0  0  0
   68.3290  152.6290  -51.1410 H   0  0  0  0  0  0  0  0  0  0  0  0
   69.0300  148.9330  -48.6360 H   0  0  0  0  0  0  0  0  0  0  0  0
   69.2920  147.5280  -46.5850 H   0  0  0  0  0  0  0  0  0  0  0  0
   64.2780  154.3190  -46.2820 H   0  0  0  0  0  0  0  0  0  0  0  0
   62.7160  152.5680  -47.0180 H   0  0  0  0  0  0  0  0  0  0  0  0
   61.5990  153.8220  -47.5400 H   0  0  0  0  0  0  0  0  0  0  0  0
   62.6210  153.4130  -44.6400 H   0  0  0  0  0  0  0  0  0  0  0  0
   61.0200  152.9710  -45.1710 H   0  0  0  0  0  0  0  0  0  0  0  0
   61.0240  155.1990  -43.9900 H   0  0  0  0  0  0  0  0  0  0  0  0
   60.4480  155.3570  -45.6410 H   0  0  0  0  0  0  0  0  0  0  0  0
   62.0180  157.1910  -45.2130 H   0  0  0  0  0  0  0  0  0  0  0  0
   63.2300  156.0920  -44.5820 H   0  0  0  0  0  0  0  0  0  0  0  0
   62.2440  156.2560  -47.5100 H   0  0  0  0  0  0  0  0  0  0  0  0
   63.8360  156.6980  -46.9060 H   0  0  0  0  0  0  0  0  0  0  0  0
  1  6  1  0  0  0  0
  1 21  1  0  0  0  0
  1 22  2  0  0  0  0
  2 13  1  0  0  0  0
  2 14  2  0  0  0  0
  3 14  1  0  0  0  0
  3 15  1  0  0  0  0
  3 27  1  0  0  0  0
  4 13  1  0  0  0  0
  4 28  1  0  0  0  0
  4 29  1  0  0  0  0
  5  6  2  0  0  0  0
  5 10  1  0  0  0  0
  5 25  1  0  0  0  0
  6  7  1  0  0  0  0
  7  8  2  0  0  0  0
  7 26  1  0  0  0  0
  8  9  1  0  0  0  0
  9 10  2  0  0  0  0
  9 30  1  0  0  0  0
 10 31  1  0  0  0  0
 11  8  1  0  0  0  0
 11 12  1  0  0  0  0
 11 23  2  0  0  0  0
 12 13  2  0  0  0  0
 12 24  1  0  0  0  0
 14 24  1  0  0  0  0
 15 16  1  0  0  0  0
 15 20  1  0  0  0  0
 15 32  1  0  0  0  0
 16 17  1  0  0  0  0
 16 33  1  0  0  0  0
 16 34  1  0  0  0  0
 17 18  1  0  0  0  0
 17 35  1  0  0  0  0
 17 36  1  0  0  0  0
 18 19  1  0  0  0  0
 18 37  1  0  0  0  0
 18 38  1  0  0  0  0
 19 20  1  0  0  0  0
 19 39  1  0  0  0  0
 19 40  1  0  0  0  0
 20 41  1  0  0  0  0
 20 42  1  0  0  0  0
M  CHG  2   1   1  21  -1
M  END
>  <lm5_entropy_jk>
22.585594734129973

>  <number_of_rotatable_bonds>
5

>  <IC50_NM>
1400

>  <charge>
0

$$$$
