3R9N
 OpenBabel11252210453D

 42 44  0  0  1  0  0  0  0  0999 V2000
   68.0410  150.7160  -43.6240 N   0  3  0  0  0  0  0  0  0  0  0  0
   65.5820  154.3250  -49.5280 N   0  0  0  0  0  0  0  0  0  0  0  0
   63.9610  154.8730  -47.9600 N   0  0  0  0  0  0  0  0  0  0  0  0
   67.2850  153.5130  -50.8450 N   0  0  0  0  0  0  0  0  0  0  0  0
   68.7640  148.9960  -45.3000 C   0  0  0  0  0  0  0  0  0  0  0  0
   68.2870  150.2930  -45.0320 C   0  0  0  0  0  0  0  0  0  0  0  0
   68.0550  151.1870  -46.1030 C   0  0  0  0  0  0  0  0  0  0  0  0
   68.2710  150.7860  -47.4410 C   0  0  0  0  0  0  0  0  0  0  0  0
   68.7830  149.4980  -47.6860 C   0  0  0  0  0  0  0  0  0  0  0  0
   69.0350  148.6210  -46.6210 C   0  0  0  0  0  0  0  0  0  0  0  0
   68.0560  151.7020  -48.6240 C   0  0  0  0  0  0  0  0  0  0  0  0
   66.9400  152.6610  -48.6200 C   0  0  0  0  0  0  0  0  0  0  0  0
   66.6540  153.4900  -49.6670 C   0  0  0  0  0  0  0  0  0  0  0  0
   65.0190  154.1120  -48.3570 C   0  0  0  0  0  0  0  0  0  0  0  0
   63.3840  154.8640  -46.6190 C   0  0  0  0  0  0  0  0  0  0  0  0
   62.3430  153.7460  -46.5000 C   0  0  0  0  0  0  0  0  0  0  0  0
   61.7110  153.7300  -45.0800 C   0  0  0  0  0  0  0  0  0  0  0  0
   61.0650  155.0970  -44.7520 C   0  0  0  0  0  0  0  0  0  0  0  0
   62.0790  156.2510  -44.9230 C   0  0  0  0  0  0  0  0  0  0  0  0
   62.7080  156.2150  -46.3420 C   0  0  0  0  0  0  0  0  0  0  0  0
   67.8870  151.9100  -43.3990 O   0  5  0  0  0  0  0  0  0  0  0  0
   68.0790  149.8610  -42.7420 O   0  0  0  0  0  0  0  0  0  0  0  0
   68.8060  151.6200  -49.5830 O   0  0  0  0  0  0  0  0  0  0  0  0
   65.6730  152.7850  -47.4240 S   0  0  0  0  0  0  0  0  0  0  0  0
   68.9400  148.2840  -44.4920 H   0  0  0  0  0  0  0  0  0  0  0  0
   67.7270  152.1980  -45.8880 H   0  0  0  0  0  0  0  0  0  0  0  0
   63.4530  155.3350  -48.7110 H   0  0  0  0  0  0  0  0  0  0  0  0
   66.8650  153.9990  -51.6220 H   0  0  0  0  0  0  0  0  0  0  0  0
   68.0040  152.8120  -50.9630 H   0  0  0  0  0  0  0  0  0  0  0  0
   68.9920  149.1790  -48.7080 H   0  0  0  0  0  0  0  0  0  0  0  0
   69.4420  147.6330  -46.8140 H   0  0  0  0  0  0  0  0  0  0  0  0
   64.1650  154.7030  -45.8630 H   0  0  0  0  0  0  0  0  0  0  0  0
   62.8060  152.7750  -46.7180 H   0  0  0  0  0  0  0  0  0  0  0  0
   61.5820  153.9080  -47.2690 H   0  0  0  0  0  0  0  0  0  0  0  0
   62.4900  153.5050  -44.3340 H   0  0  0  0  0  0  0  0  0  0  0  0
   60.9780  152.9220  -44.9760 H   0  0  0  0  0  0  0  0  0  0  0  0
   60.6780  155.0920  -43.7220 H   0  0  0  0  0  0  0  0  0  0  0  0
   60.2000  155.2810  -45.4040 H   0  0  0  0  0  0  0  0  0  0  0  0
   61.5860  157.2210  -44.7480 H   0  0  0  0  0  0  0  0  0  0  0  0
   62.8670  156.1720  -44.1580 H   0  0  0  0  0  0  0  0  0  0  0  0
   61.9350  156.3970  -47.1010 H   0  0  0  0  0  0  0  0  0  0  0  0
   63.4400  157.0230  -46.4380 H   0  0  0  0  0  0  0  0  0  0  0  0
  1  6  1  0  0  0  0
  1 21  1  0  0  0  0
  1 22  2  0  0  0  0
  2 13  1  0  0  0  0
  2 14  2  0  0  0  0
  3 14  1  0  0  0  0
  3 15  1  0  0  0  0
  3 27  1  0  0  0  0
  4 13  1  0  0  0  0
  4 28  1  0  0  0  0
  4 29  1  0  0  0  0
  5  6  2  0  0  0  0
  5 10  1  0  0  0  0
  5 25  1  0  0  0  0
  6  7  1  0  0  0  0
  7  8  2  0  0  0  0
  7 26  1  0  0  0  0
  8  9  1  0  0  0  0
  9 10  2  0  0  0  0
  9 30  1  0  0  0  0
 10 31  1  0  0  0  0
 11  8  1  0  0  0  0
 11 12  1  0  0  0  0
 11 23  2  0  0  0  0
 12 13  2  0  0  0  0
 12 24  1  0  0  0  0
 14 24  1  0  0  0  0
 15 16  1  0  0  0  0
 15 20  1  0  0  0  0
 15 32  1  0  0  0  0
 16 17  1  0  0  0  0
 16 33  1  0  0  0  0
 16 34  1  0  0  0  0
 17 18  1  0  0  0  0
 17 35  1  0  0  0  0
 17 36  1  0  0  0  0
 18 19  1  0  0  0  0
 18 37  1  0  0  0  0
 18 38  1  0  0  0  0
 19 20  1  0  0  0  0
 19 39  1  0  0  0  0
 19 40  1  0  0  0  0
 20 41  1  0  0  0  0
 20 42  1  0  0  0  0
M  CHG  2   1   1  21  -1
M  END
>  <lm5_entropy_jk>
22.585594734129973

>  <number_of_rotatable_bonds>
5

>  <IC50_NM>
1400

>  <charge>
0

$$$$
