3NX7
 OpenBabel11252210453D

 36 36  0  0  0  0  0  0  0  0999 V2000
    5.7060   25.8790    4.4280 C   0  0  0  0  0  0  0  0  0  0  0  0
    8.7420   23.8790    1.0080 N   0  0  0  0  0  0  0  0  0  0  0  0
    6.8420   24.8990    0.3050 O   0  0  0  0  0  0  0  0  0  0  0  0
    8.1940   26.7800    3.8410 S   0  0  0  0  0  0  0  0  0  0  0  0
    4.8220   24.8680    4.8060 C   0  0  0  0  0  0  0  0  0  0  0  0
    8.0750   27.2290    2.1670 N   0  0  0  0  0  0  0  0  0  0  0  0
    8.2850   22.5770    0.5870 O   0  0  0  0  0  0  0  0  0  0  0  0
    7.0110   25.5170    4.0830 C   0  0  0  0  0  0  0  0  0  0  0  0
    7.7960   27.9640    4.5980 O   0  0  0  0  0  0  0  0  0  0  0  0
    5.2340   23.5340    4.8340 C   0  0  0  0  0  0  0  0  0  0  0  0
    9.5380   26.2070    3.9850 O   0  0  0  0  0  0  0  0  0  0  0  0
    7.4390   24.1840    4.0720 C   0  0  0  0  0  0  0  0  0  0  0  0
    4.4090   22.5200    5.2780 O   0  0  0  0  0  0  0  0  0  0  0  0
    7.2100   28.9810    0.5260 C   0  0  0  0  0  0  0  0  0  0  0  0
    8.5030   29.5230    0.7710 O   0  0  0  0  0  0  0  0  0  0  0  0
    6.5230   23.2030    4.4400 C   0  0  0  0  0  0  0  0  0  0  0  0
    6.8840   28.0610    1.7230 C   0  0  0  0  0  0  0  0  0  0  0  0
    7.9760   24.9960    0.7770 C   0  0  0  0  0  0  0  0  0  0  0  0
    8.6860   26.3340    1.0690 C   0  0  0  0  0  0  0  0  0  0  0  0
    3.0510   22.7110    5.7620 C   0  0  0  0  0  0  0  0  0  0  0  0
    5.3730   26.9220    4.4440 H   0  0  0  0  0  0  0  0  0  0  0  0
    9.7190   23.9350    1.3160 H   0  0  0  0  0  0  0  0  0  0  0  0
    3.8110   25.1280    5.0910 H   0  0  0  0  0  0  0  0  0  0  0  0
    8.3960   21.9850    1.3950 H   0  0  0  0  0  0  0  0  0  0  0  0
    8.4640   23.8950    3.8120 H   0  0  0  0  0  0  0  0  0  0  0  0
    7.1910   28.4120   -0.4160 H   0  0  0  0  0  0  0  0  0  0  0  0
    6.4460   29.7720    0.4320 H   0  0  0  0  0  0  0  0  0  0  0  0
    8.8810   28.8500    1.3830 H   0  0  0  0  0  0  0  0  0  0  0  0
    6.8130   22.1570    4.4310 H   0  0  0  0  0  0  0  0  0  0  0  0
    6.0070   27.4340    1.4920 H   0  0  0  0  0  0  0  0  0  0  0  0
    6.5520   28.7340    2.5360 H   0  0  0  0  0  0  0  0  0  0  0  0
    8.7480   26.8450    0.0980 H   0  0  0  0  0  0  0  0  0  0  0  0
    9.7320   26.0900    1.3130 H   0  0  0  0  0  0  0  0  0  0  0  0
    2.6010   21.7450    6.0320 H   0  0  0  0  0  0  0  0  0  0  0  0
    2.4140   23.1680    4.9910 H   0  0  0  0  0  0  0  0  0  0  0  0
    3.0350   23.3460    6.6580 H   0  0  0  0  0  0  0  0  0  0  0  0
  1  8  2  0  0  0  0
  1  5  1  0  0  0  0
  1 21  1  0  0  0  0
  2  7  1  0  0  0  0
  2 18  1  0  0  0  0
  2 22  1  0  0  0  0
  3 18  2  0  0  0  0
  4  6  1  0  0  0  0
  4 11  2  0  0  0  0
  4  8  1  0  0  0  0
  4  9  2  0  0  0  0
  5 10  2  0  0  0  0
  5 23  1  0  0  0  0
  6 19  1  0  0  0  0
  6 17  1  0  0  0  0
  7 24  1  0  0  0  0
  8 12  1  0  0  0  0
 10 16  1  0  0  0  0
 10 13  1  0  0  0  0
 12 16  2  0  0  0  0
 12 25  1  0  0  0  0
 13 20  1  0  0  0  0
 14 15  1  0  0  0  0
 14 17  1  0  0  0  0
 14 26  1  0  0  0  0
 14 27  1  0  0  0  0
 15 28  1  0  0  0  0
 16 29  1  0  0  0  0
 17 30  1  0  0  0  0
 17 31  1  0  0  0  0
 18 19  1  0  0  0  0
 19 32  1  0  0  0  0
 19 33  1  0  0  0  0
 20 34  1  0  0  0  0
 20 35  1  0  0  0  0
 20 36  1  0  0  0  0
M  END
>  <lm5_entropy_jk>
31.710712665173276

>  <number_of_rotatable_bonds>
8

>  <deltaG_kcalmol>
-11.09

>  <charge>
0

$$$$
