3NX7
 OpenBabel11252210453D

 36 36  0  0  0  0  0  0  0  0999 V2000
    5.6770   25.4610    4.2410 C   0  0  0  0  0  0  0  0  0  0  0  0
    8.9920   23.7660    0.3800 N   0  0  0  0  0  0  0  0  0  0  0  0
    6.8940   24.6510    0.2000 O   0  0  0  0  0  0  0  0  0  0  0  0
    8.1150   26.5240    3.7420 S   0  0  0  0  0  0  0  0  0  0  0  0
    4.8600   24.4260    4.7000 C   0  0  0  0  0  0  0  0  0  0  0  0
    8.0570   26.9440    2.0610 N   0  0  0  0  0  0  0  0  0  0  0  0
    8.6960   22.6150   -0.4430 O   0  0  0  0  0  0  0  0  0  0  0  0
    7.0200   25.1820    3.9820 C   0  0  0  0  0  0  0  0  0  0  0  0
    7.5680   27.6770    4.4510 O   0  0  0  0  0  0  0  0  0  0  0  0
    5.3830   23.1490    4.9000 C   0  0  0  0  0  0  0  0  0  0  0  0
    9.4960   26.0900    3.9960 O   0  0  0  0  0  0  0  0  0  0  0  0
    7.5430   23.8880    4.0860 C   0  0  0  0  0  0  0  0  0  0  0  0
    4.6410   22.1300    5.4620 O   0  0  0  0  0  0  0  0  0  0  0  0
    7.9950   29.2010    0.8720 C   0  0  0  0  0  0  0  0  0  0  0  0
    8.7000   29.9000    1.8940 O   0  0  0  0  0  0  0  0  0  0  0  0
    6.7000   22.8830    4.5560 C   0  0  0  0  0  0  0  0  0  0  0  0
    7.1920   28.0700    1.5420 C   0  0  0  0  0  0  0  0  0  0  0  0
    8.0820   24.7870    0.5240 C   0  0  0  0  0  0  0  0  0  0  0  0
    8.7480   26.1090    0.9760 C   0  0  0  0  0  0  0  0  0  0  0  0
    3.2710   22.2570    5.9330 C   0  0  0  0  0  0  0  0  0  0  0  0
    5.2680   26.4670    4.1330 H   0  0  0  0  0  0  0  0  0  0  0  0
    9.9630   23.8730    0.6770 H   0  0  0  0  0  0  0  0  0  0  0  0
    3.8200   24.6250    4.9210 H   0  0  0  0  0  0  0  0  0  0  0  0
    8.7640   21.8280    0.1770 H   0  0  0  0  0  0  0  0  0  0  0  0
    8.5890   23.6550    3.8570 H   0  0  0  0  0  0  0  0  0  0  0  0
    8.6800   28.7990    0.1120 H   0  0  0  0  0  0  0  0  0  0  0  0
    7.3030   29.8800    0.3430 H   0  0  0  0  0  0  0  0  0  0  0  0
    9.1310   29.2050    2.4300 H   0  0  0  0  0  0  0  0  0  0  0  0
    7.0690   21.8690    4.6660 H   0  0  0  0  0  0  0  0  0  0  0  0
    6.4400   27.6970    0.8290 H   0  0  0  0  0  0  0  0  0  0  0  0
    6.6130   28.5420    2.3550 H   0  0  0  0  0  0  0  0  0  0  0  0
    8.8800   26.6730    0.0410 H   0  0  0  0  0  0  0  0  0  0  0  0
    9.7730   25.8610    1.2960 H   0  0  0  0  0  0  0  0  0  0  0  0
    2.9040   21.2860    6.2990 H   0  0  0  0  0  0  0  0  0  0  0  0
    2.6010   22.5810    5.1230 H   0  0  0  0  0  0  0  0  0  0  0  0
    3.2030   22.9730    6.7620 H   0  0  0  0  0  0  0  0  0  0  0  0
  1  8  2  0  0  0  0
  1  5  1  0  0  0  0
  1 21  1  0  0  0  0
  2  7  1  0  0  0  0
  2 18  1  0  0  0  0
  2 22  1  0  0  0  0
  3 18  2  0  0  0  0
  4  6  1  0  0  0  0
  4 11  2  0  0  0  0
  4  8  1  0  0  0  0
  4  9  2  0  0  0  0
  5 10  2  0  0  0  0
  5 23  1  0  0  0  0
  6 19  1  0  0  0  0
  6 17  1  0  0  0  0
  7 24  1  0  0  0  0
  8 12  1  0  0  0  0
 10 16  1  0  0  0  0
 10 13  1  0  0  0  0
 12 16  2  0  0  0  0
 12 25  1  0  0  0  0
 13 20  1  0  0  0  0
 14 15  1  0  0  0  0
 14 17  1  0  0  0  0
 14 26  1  0  0  0  0
 14 27  1  0  0  0  0
 15 28  1  0  0  0  0
 16 29  1  0  0  0  0
 17 30  1  0  0  0  0
 17 31  1  0  0  0  0
 18 19  1  0  0  0  0
 19 32  1  0  0  0  0
 19 33  1  0  0  0  0
 20 34  1  0  0  0  0
 20 35  1  0  0  0  0
 20 36  1  0  0  0  0
M  END
>  <lm5_entropy_jk>
31.710712665173276

>  <number_of_rotatable_bonds>
8

>  <deltaG_kcalmol>
-11.09

>  <charge>
0

$$$$
