23a-chB.pdb
 OpenBabel11252210453D

 84 89  0  0  1  0  0  0  0  0999 V2000
    2.3890    2.7490    9.4370 C   0  0  0  0  0  0  0  0  0  0  0  0
    3.3510    4.7380    8.7720 O   0  0  0  0  0  0  0  0  0  0  0  0
    2.4180    4.2830    7.7340 C   0  0  0  0  0  0  0  0  0  0  0  0
    5.1890    0.4950   16.6400 O   0  0  0  0  0  0  0  0  0  0  0  0
    4.0940   -1.2760   12.2590 O   0  0  0  0  0  0  0  0  0  0  0  0
    4.4550    0.1420   13.9990 N   0  0  0  0  0  0  0  0  0  0  0  0
    1.8650    2.9930    8.1720 O   0  0  0  0  0  0  0  0  0  0  0  0
    3.2550   -5.3430   17.0090 C   0  0  0  0  0  0  0  0  0  0  0  0
    5.7860   -3.7300   16.6710 N   0  0  0  0  0  0  0  0  0  0  0  0
    3.8490   -6.2400   17.9100 C   0  0  0  0  0  0  0  0  0  0  0  0
    6.5580   -3.6330   14.5280 O   0  0  0  0  0  0  0  0  0  0  0  0
    2.1200    1.6940   10.2790 C   0  0  0  0  0  0  0  0  0  0  0  0
    3.7150   -7.6170   17.7190 C   0  0  0  0  0  0  0  0  0  0  0  0
    3.2950    3.7940    9.7920 C   0  0  0  0  0  0  0  0  0  0  0  0
    2.9840   -8.1070   16.6320 C   0  0  0  0  0  0  0  0  0  0  0  0
    2.8190    1.6810   11.5210 C   0  0  0  0  0  0  0  0  0  0  0  0
    2.3940   -7.2130   15.7330 C   0  0  0  0  0  0  0  0  0  0  0  0
    3.7080    2.7040   11.8520 C   0  0  0  0  0  0  0  0  0  0  0  0
    2.5320   -5.8350   15.9120 C   0  0  0  0  0  0  0  0  0  0  0  0
    2.5380    0.5700   12.4940 C   0  0  0  0  0  0  0  0  0  0  0  0
    3.7660   -0.2620   12.8540 C   0  0  0  0  0  0  0  0  0  0  0  0
    5.6480   -0.5680   14.5110 C   0  0  1  0  0  0  0  0  0  0  0  0
    3.9690    3.7960   10.9900 C   0  0  0  0  0  0  0  0  0  0  0  0
    8.0530   -0.1190   10.6750 C   0  0  0  0  0  0  0  0  0  0  0  0
    7.7790    1.1550   10.1660 C   0  0  0  0  0  0  0  0  0  0  0  0
    7.2560    2.1400   11.0070 C   0  0  0  0  0  0  0  0  0  0  0  0
    6.9860    1.8470   12.3460 C   0  0  0  0  0  0  0  0  0  0  0  0
    7.2340    0.5620   12.8530 C   0  0  0  0  0  0  0  0  0  0  0  0
    7.7830   -0.4200   12.0120 C   0  0  0  0  0  0  0  0  0  0  0  0
    6.9400    0.2620   14.2940 C   0  0  0  0  0  0  0  0  0  0  0  0
    5.4820   -0.8010   16.0420 C   0  0  2  0  0  0  0  0  0  0  0  0
    4.3150   -1.6770   16.4940 C   0  0  0  0  0  0  0  0  0  0  0  0
    4.4360   -3.2000   16.3170 C   0  0  2  0  0  0  0  0  0  0  0  0
    6.7100   -4.0100   15.6830 C   0  0  0  0  0  0  0  0  0  0  0  0
    7.9370   -4.8820   16.0180 C   0  0  1  0  0  0  0  0  0  0  0  0
    8.6140   -4.4050   17.2180 O   0  0  0  0  0  0  0  0  0  0  0  0
    3.3730   -3.8630   17.2300 C   0  0  0  0  0  0  0  0  0  0  0  0
    8.9640   -5.4870   18.0430 C   0  0  0  0  0  0  0  0  0  0  0  0
    9.6430   -5.3190   19.0180 O   0  0  0  0  0  0  0  0  0  0  0  0
    8.3120   -6.6430   17.5700 N   0  0  0  0  0  0  0  0  0  0  0  0
    7.5780   -6.3590   16.3000 C   0  0  0  0  0  0  0  0  0  0  0  0
    8.6750   -7.9900   17.9210 C   0  0  0  0  0  0  0  0  0  0  0  0
    7.6920   -8.9920   17.8580 C   0  0  0  0  0  0  0  0  0  0  0  0
    8.0180  -10.2950   18.2370 C   0  0  0  0  0  0  0  0  0  0  0  0
    9.3050  -10.6000   18.6890 C   0  0  0  0  0  0  0  0  0  0  0  0
   10.2760   -9.5960   18.7540 C   0  0  0  0  0  0  0  0  0  0  0  0
    9.9780   -8.2900   18.3580 C   0  0  0  0  0  0  0  0  0  0  0  0
    1.4120    0.9090   10.0200 H   0  0  0  0  0  0  0  0  0  0  0  0
    4.6780    4.5750   11.2760 H   0  0  0  0  0  0  0  0  0  0  0  0
    4.2490    2.6810   12.7990 H   0  0  0  0  0  0  0  0  0  0  0  0
    3.0000    4.1150    6.8070 H   0  0  0  0  0  0  0  0  0  0  0  0
    1.5850    5.0130    7.6780 H   0  0  0  0  0  0  0  0  0  0  0  0
    4.2830    1.0420   14.4500 H   0  0  0  0  0  0  0  0  0  0  0  0
    5.9530   -3.9210   17.6610 H   0  0  0  0  0  0  0  0  0  0  0  0
    4.1950   -1.4680   17.5900 H   0  0  0  0  0  0  0  0  0  0  0  0
    4.4100   -5.8640   18.7680 H   0  0  0  0  0  0  0  0  0  0  0  0
    4.1820   -8.3120   18.4200 H   0  0  0  0  0  0  0  0  0  0  0  0
    2.8840   -9.1850   16.4880 H   0  0  0  0  0  0  0  0  0  0  0  0
    1.8300   -7.5870   14.8850 H   0  0  0  0  0  0  0  0  0  0  0  0
    2.0630   -5.1440   15.2130 H   0  0  0  0  0  0  0  0  0  0  0  0
    1.7720   -0.1360   12.0650 H   0  0  0  0  0  0  0  0  0  0  0  0
    5.7520   -1.5660   14.0040 H   0  0  0  0  0  0  0  0  0  0  0  0
    2.0650    1.0070   13.4140 H   0  0  0  0  0  0  0  0  0  0  0  0
    6.0860    0.8040   17.0500 H   0  0  0  0  0  0  0  0  0  0  0  0
    8.4870   -0.8760   10.0240 H   0  0  0  0  0  0  0  0  0  0  0  0
    7.9730    1.3850    9.1180 H   0  0  0  0  0  0  0  0  0  0  0  0
    7.0620    3.1460   10.6260 H   0  0  0  0  0  0  0  0  0  0  0  0
    6.5900    2.6270   13.0010 H   0  0  0  0  0  0  0  0  0  0  0  0
    8.0120   -1.4080   12.4100 H   0  0  0  0  0  0  0  0  0  0  0  0
    7.7990   -0.2910   14.7550 H   0  0  0  0  0  0  0  0  0  0  0  0
    6.8480    1.2200   14.8730 H   0  0  0  0  0  0  0  0  0  0  0  0
    6.4420   -1.1710   16.4750 H   0  0  0  0  0  0  0  0  0  0  0  0
    3.3780   -1.3450   15.9800 H   0  0  0  0  0  0  0  0  0  0  0  0
    4.2260   -3.4730   15.2480 H   0  0  0  0  0  0  0  0  0  0  0  0
    8.6910   -4.7680   15.1970 H   0  0  0  0  0  0  0  0  0  0  0  0
    3.6140   -3.6610   18.3050 H   0  0  0  0  0  0  0  0  0  0  0  0
    2.3820   -3.3770   17.0310 H   0  0  0  0  0  0  0  0  0  0  0  0
    7.9100   -7.0410   15.4760 H   0  0  0  0  0  0  0  0  0  0  0  0
    6.4770   -6.5120   16.4740 H   0  0  0  0  0  0  0  0  0  0  0  0
    6.6770   -8.7700   17.5190 H   0  0  0  0  0  0  0  0  0  0  0  0
    7.2540  -11.0780   18.1840 H   0  0  0  0  0  0  0  0  0  0  0  0
    9.5480  -11.6220   18.9930 H   0  0  0  0  0  0  0  0  0  0  0  0
   11.2790   -9.8360   19.1130 H   0  0  0  0  0  0  0  0  0  0  0  0
   10.7590   -7.5300   18.3900 H   0  0  0  0  0  0  0  0  0  0  0  0
  1 14  2  0  0  0  0
  1 12  1  0  0  0  0
  2 14  1  0  0  0  0
  3  7  1  0  0  0  0
  3  2  1  0  0  0  0
  4 64  1  0  0  0  0
  5 21  2  0  0  0  0
  6 22  1  0  0  0  0
  6 53  1  0  0  0  0
  7  1  1  0  0  0  0
  8 37  1  0  0  0  0
  8 10  1  0  0  0  0
  9 54  1  0  0  0  0
 10 56  1  0  0  0  0
 11 34  2  0  0  0  0
 12 16  2  0  0  0  0
 13 10  2  0  0  0  0
 13 57  1  0  0  0  0
 14 23  1  0  0  0  0
 15 13  1  0  0  0  0
 16 18  1  0  0  0  0
 16 20  1  0  0  0  0
 17 19  1  0  0  0  0
 17 15  2  0  0  0  0
 18 50  1  0  0  0  0
 19  8  2  0  0  0  0
 20 21  1  0  0  0  0
 20 63  1  0  0  0  0
 21  6  1  0  0  0  0
 22 62  1  6  0  0  0
 22 31  1  0  0  0  0
 23 49  1  0  0  0  0
 23 18  2  0  0  0  0
 24 29  1  0  0  0  0
 25 24  2  0  0  0  0
 25 26  1  0  0  0  0
 26 27  2  0  0  0  0
 27 28  1  0  0  0  0
 27 68  1  0  0  0  0
 28 30  1  0  0  0  0
 29 69  1  0  0  0  0
 29 28  2  0  0  0  0
 30 70  1  0  0  0  0
 30 22  1  0  0  0  0
 30 71  1  0  0  0  0
 31 72  1  1  0  0  0
 31  4  1  0  0  0  0
 31 32  1  0  0  0  0
 32 55  1  0  0  0  0
 33 74  1  6  0  0  0
 33 32  1  0  0  0  0
 33  9  1  0  0  0  0
 33 37  1  0  0  0  0
 34 35  1  0  0  0  0
 34  9  1  0  0  0  0
 35 75  1  6  0  0  0
 35 36  1  0  0  0  0
 36 38  1  0  0  0  0
 37 76  1  0  0  0  0
 38 39  2  0  0  0  0
 40 42  1  0  0  0  0
 40 38  1  0  0  0  0
 41 35  1  0  0  0  0
 41 79  1  0  0  0  0
 41 40  1  0  0  0  0
 42 47  1  0  0  0  0
 43 42  2  0  0  0  0
 43 44  1  0  0  0  0
 44 45  2  0  0  0  0
 45 46  1  0  0  0  0
 45 82  1  0  0  0  0
 46 83  1  0  0  0  0
 47 84  1  0  0  0  0
 47 46  2  0  0  0  0
 48 12  1  0  0  0  0
 51  3  1  0  0  0  0
 52  3  1  0  0  0  0
 58 15  1  0  0  0  0
 59 17  1  0  0  0  0
 60 19  1  0  0  0  0
 61 20  1  0  0  0  0
 65 24  1  0  0  0  0
 66 25  1  0  0  0  0
 67 26  1  0  0  0  0
 73 32  1  0  0  0  0
 77 37  1  0  0  0  0
 78 41  1  0  0  0  0
 80 43  1  0  0  0  0
 81 44  1  0  0  0  0
M  END
>  <charge>
0

>  <KI_NM>
657

>  <number_of_rotatable_bonds>
15

>  <lm5_entropy_jk>
24.46231099087854

>  <ligand_crystal_conformation>
B

$$$$
