6T0P
 OpenBabel11252210453D

 54 56  0  0  1  0  0  0  0  0999 V2000
   -0.6480   20.7980   15.7240 N   0  3  0  0  0  0  0  0  0  0  0  0
    0.6890   21.0310   16.4710 C   0  0  2  0  0  0  0  0  0  0  0  0
   -0.6780   18.3130   19.5330 O   0  0  0  0  0  0  0  0  0  0  0  0
    1.7830   21.6490   15.5280 C   0  0  0  0  0  0  0  0  0  0  0  0
    1.5760   19.7390   18.4440 N   0  0  0  0  0  0  0  0  0  0  0  0
    1.0100   18.6570   16.5220 O   0  0  0  0  0  0  0  0  0  0  0  0
    2.8280   22.4230   16.3010 C   0  0  0  0  0  0  0  0  0  0  0  0
    0.4560   16.3520   19.3120 N   0  0  0  0  0  0  0  0  0  0  0  0
    4.1220   21.9090   16.4730 C   0  0  0  0  0  0  0  0  0  0  0  0
   -2.6420   15.2670   15.4030 N   0  3  0  0  0  0  0  0  0  0  0  0
    5.0740   22.6270   17.2190 C   0  0  0  0  0  0  0  0  0  0  0  0
   -1.8460   13.0800   15.0570 N   0  0  0  0  0  0  0  0  0  0  0  0
    4.7280   23.8600   17.7970 C   0  0  0  0  0  0  0  0  0  0  0  0
    3.4370   24.3810   17.6200 C   0  0  0  0  0  0  0  0  0  0  0  0
    2.4910   23.6620   16.8700 C   0  0  0  0  0  0  0  0  0  0  0  0
    1.1410   19.7100   17.1220 C   0  0  0  0  0  0  0  0  0  0  0  0
    1.7390   18.4890   19.2170 C   0  0  2  0  0  0  0  0  0  0  0  0
    0.3840   17.7340   19.3640 C   0  0  0  0  0  0  0  0  0  0  0  0
   -0.7360   15.4340   19.2840 C   0  0  0  0  0  0  0  0  0  0  0  0
   -1.4150   15.3440   17.9240 C   0  0  0  0  0  0  0  0  0  0  0  0
   -2.2150   16.3950   17.4880 C   0  0  0  0  0  0  0  0  0  0  0  0
   -2.8230   16.3700   16.2320 C   0  0  0  0  0  0  0  0  0  0  0  0
   -1.9260   14.1830   15.8540 C   0  0  0  0  0  0  0  0  0  0  0  0
   -1.2890   14.2220   17.0970 C   0  0  0  0  0  0  0  0  0  0  0  0
    2.3780   18.8950   20.5720 C   0  0  0  0  0  0  0  0  0  0  0  0
    2.7560   20.3910   20.4430 C   0  0  0  0  0  0  0  0  0  0  0  0
    1.9340   20.9210   19.2540 C   0  0  0  0  0  0  0  0  0  0  0  0
   -0.9880   21.6430   15.2390 H   0  0  0  0  0  0  0  0  0  0  0  0
   -1.4050   20.5090   16.3620 H   0  0  0  0  0  0  0  0  0  0  0  0
   -0.5530   20.0410   15.0210 H   0  0  0  0  0  0  0  0  0  0  0  0
    0.5050   21.7070   17.3150 H   0  0  0  0  0  0  0  0  0  0  0  0
    1.3350   22.3380   14.7950 H   0  0  0  0  0  0  0  0  0  0  0  0
    2.2570   20.8660   14.9140 H   0  0  0  0  0  0  0  0  0  0  0  0
    1.3990   15.9650   19.2760 H   0  0  0  0  0  0  0  0  0  0  0  0
    4.3900   20.9490   16.0350 H   0  0  0  0  0  0  0  0  0  0  0  0
    6.0800   22.2310   17.3520 H   0  0  0  0  0  0  0  0  0  0  0  0
   -2.5640   12.9510   14.3380 H   0  0  0  0  0  0  0  0  0  0  0  0
   -1.5600   12.2230   15.5210 H   0  0  0  0  0  0  0  0  0  0  0  0
    5.4660   24.4150   18.3790 H   0  0  0  0  0  0  0  0  0  0  0  0
    3.1700   25.3430   18.0630 H   0  0  0  0  0  0  0  0  0  0  0  0
    1.4910   24.0710   16.7300 H   0  0  0  0  0  0  0  0  0  0  0  0
    2.4140   17.8300   18.6580 H   0  0  0  0  0  0  0  0  0  0  0  0
   -0.4580   14.4260   19.6220 H   0  0  0  0  0  0  0  0  0  0  0  0
   -1.4860   15.7940   20.0040 H   0  0  0  0  0  0  0  0  0  0  0  0
    3.2530   18.2690   20.8010 H   0  0  0  0  0  0  0  0  0  0  0  0
    1.6460   18.7640   21.3830 H   0  0  0  0  0  0  0  0  0  0  0  0
    2.5570   20.9670   21.3620 H   0  0  0  0  0  0  0  0  0  0  0  0
    3.8300   20.5100   20.2330 H   0  0  0  0  0  0  0  0  0  0  0  0
    1.0180   21.4170   19.6160 H   0  0  0  0  0  0  0  0  0  0  0  0
    2.5210   21.6520   18.6780 H   0  0  0  0  0  0  0  0  0  0  0  0
   -3.4340   17.2060   15.8680 H   0  0  0  0  0  0  0  0  0  0  0  0
   -2.3510   17.2690   18.1190 H   0  0  0  0  0  0  0  0  0  0  0  0
   -0.7040   13.3690   17.4230 H   0  0  0  0  0  0  0  0  0  0  0  0
   -3.0120   15.2930   14.4590 H   0  0  0  0  0  0  0  0  0  0  0  0
  1  2  1  0  0  0  0
  1 28  1  0  0  0  0
  1 29  1  0  0  0  0
  1 30  1  0  0  0  0
  2  4  1  0  0  0  0
  2 16  1  0  0  0  0
  2 31  1  1  0  0  0
  3 18  2  0  0  0  0
  4  7  1  0  0  0  0
  4 32  1  0  0  0  0
  4 33  1  0  0  0  0
  5 16  1  0  0  0  0
  5 17  1  0  0  0  0
  5 27  1  0  0  0  0
  6 16  2  0  0  0  0
  7  9  2  0  0  0  0
  7 15  1  0  0  0  0
  8 18  1  0  0  0  0
  8 19  1  0  0  0  0
  8 34  1  0  0  0  0
  9 11  1  0  0  0  0
  9 35  1  0  0  0  0
 10 22  2  0  0  0  0
 10 23  1  0  0  0  0
 10 54  1  0  0  0  0
 11 13  2  0  0  0  0
 11 36  1  0  0  0  0
 12 23  1  0  0  0  0
 12 37  1  0  0  0  0
 12 38  1  0  0  0  0
 13 14  1  0  0  0  0
 13 39  1  0  0  0  0
 14 15  2  0  0  0  0
 14 40  1  0  0  0  0
 15 41  1  0  0  0  0
 17 18  1  0  0  0  0
 17 25  1  0  0  0  0
 17 42  1  6  0  0  0
 19 20  1  0  0  0  0
 19 43  1  0  0  0  0
 19 44  1  0  0  0  0
 20 21  2  0  0  0  0
 20 24  1  0  0  0  0
 21 22  1  0  0  0  0
 21 52  1  0  0  0  0
 22 51  1  0  0  0  0
 23 24  2  0  0  0  0
 24 53  1  0  0  0  0
 25 26  1  0  0  0  0
 25 45  1  0  0  0  0
 25 46  1  0  0  0  0
 26 27  1  0  0  0  0
 26 47  1  0  0  0  0
 26 48  1  0  0  0  0
 27 49  1  0  0  0  0
 27 50  1  0  0  0  0
M  CHG  2   1   1  10   1
M  END
>  <number_of_rotatable_bonds>
8

>  <lm5_entropy_jk>
21.57145520137845

>  <protonation_change>
deprotonated_in_solution

>  <protonation_site>
54

>  <protonation_pKa>
6.7

>  <protonation_pKa_method>
experiment

>  <experiment_pH>
7.8

>  <protonated_energy_kcalmol>
122.181981

>  <deprotonated_energy_kcalmol>
28.953583

>  <deltaG_kcalmol>
-6.04

>  <charge>
2

$$$$
