6RLY
 OpenBabel11252210453D

 46 48  0  0  0  0  0  0  0  0999 V2000
    7.4600   29.3290    5.9490 N   0  0  0  0  0  0  0  0  0  0  0  0
    6.6590   28.1570    5.5380 C   0  0  0  0  0  0  0  0  0  0  0  0
    1.3390   22.6760    8.7110 C   0  0  0  0  0  0  0  0  0  0  0  0
    0.0860   22.5520    9.3140 C   0  0  0  0  0  0  0  0  0  0  0  0
   -1.0810   22.6210    8.5470 C   0  0  0  0  0  0  0  0  0  0  0  0
   -0.9890   22.8150    7.1670 C   0  0  0  0  0  0  0  0  0  0  0  0
    0.2620   22.9190    6.5540 C   0  0  0  0  0  0  0  0  0  0  0  0
    1.4400   22.8540    7.3190 C   0  0  0  0  0  0  0  0  0  0  0  0
    2.7630   23.0080    6.6790 C   0  0  0  0  0  0  0  0  0  0  0  0
    3.9030   22.3680    7.2020 C   0  0  0  0  0  0  0  0  0  0  0  0
    5.1610   22.6040    6.6520 C   0  0  0  0  0  0  0  0  0  0  0  0
    5.3190   23.4220    5.5160 C   0  0  0  0  0  0  0  0  0  0  0  0
    4.1770   24.0090    4.9620 C   0  0  0  0  0  0  0  0  0  0  0  0
    2.9220   23.8270    5.5520 C   0  0  0  0  0  0  0  0  0  0  0  0
    6.7100   23.5950    4.9700 C   0  0  0  0  0  0  0  0  0  0  0  0
    6.9400   24.6940    3.9140 C   0  0  0  0  0  0  0  0  0  0  0  0
    8.5360   31.8080    6.7890 C   0  0  0  0  0  0  0  0  0  0  0  0
    7.9760   30.8800    7.7240 C   0  0  0  0  0  0  0  0  0  0  0  0
    7.4670   29.6820    7.3160 C   0  0  0  0  0  0  0  0  0  0  0  0
    8.0510   30.1640    4.9670 C   0  0  0  0  0  0  0  0  0  0  0  0
    8.6080   31.4430    5.4780 C   0  0  0  0  0  0  0  0  0  0  0  0
    7.4580   26.9680    4.9590 C   0  0  0  0  0  0  0  0  0  0  0  0
    8.6640   26.8290    4.9850 O   0  0  0  0  0  0  0  0  0  0  0  0
    6.5830   26.0590    4.3550 N   0  0  0  0  0  0  0  0  0  0  0  0
    8.0480   29.8520    3.7820 O   0  0  0  0  0  0  0  0  0  0  0  0
    9.2010   32.2900    4.5840 O   0  0  0  0  0  0  0  0  0  0  0  0
    6.0920   27.7560    6.4250 H   0  0  0  0  0  0  0  0  0  0  0  0
    5.9000   28.4990    4.7690 H   0  0  0  0  0  0  0  0  0  0  0  0
    2.2360   22.6460    9.3350 H   0  0  0  0  0  0  0  0  0  0  0  0
    0.0100   22.4200   10.3930 H   0  0  0  0  0  0  0  0  0  0  0  0
   -2.0580   22.5370    9.0270 H   0  0  0  0  0  0  0  0  0  0  0  0
   -1.8980   22.8990    6.5660 H   0  0  0  0  0  0  0  0  0  0  0  0
    0.3120   23.0600    5.4710 H   0  0  0  0  0  0  0  0  0  0  0  0
    3.8200   21.6930    8.0560 H   0  0  0  0  0  0  0  0  0  0  0  0
    6.0360   22.1670    7.1310 H   0  0  0  0  0  0  0  0  0  0  0  0
    4.2260   24.6190    4.0610 H   0  0  0  0  0  0  0  0  0  0  0  0
    2.0670   24.3500    5.1140 H   0  0  0  0  0  0  0  0  0  0  0  0
    7.4020   23.7650    5.8290 H   0  0  0  0  0  0  0  0  0  0  0  0
    7.0030   22.6250    4.4770 H   0  0  0  0  0  0  0  0  0  0  0  0
    8.0220   24.6620    3.6120 H   0  0  0  0  0  0  0  0  0  0  0  0
    6.3050   24.4630    3.0170 H   0  0  0  0  0  0  0  0  0  0  0  0
    8.8930   32.7760    7.1550 H   0  0  0  0  0  0  0  0  0  0  0  0
    7.9560   31.1530    8.7850 H   0  0  0  0  0  0  0  0  0  0  0  0
    7.0450   28.9710    8.0360 H   0  0  0  0  0  0  0  0  0  0  0  0
    5.5670   26.2650    4.3370 H   0  0  0  0  0  0  0  0  0  0  0  0
    9.0590   31.9830    3.6320 H   0  0  0  0  0  0  0  0  0  0  0  0
  1 20  1  0  0  0  0
  1  2  1  0  0  0  0
  1 19  1  0  0  0  0
  2 22  1  0  0  0  0
  2 27  1  0  0  0  0
  2 28  1  0  0  0  0
  3  8  2  0  0  0  0
  3  4  1  0  0  0  0
  3 29  1  0  0  0  0
  4  5  2  0  0  0  0
  4 30  1  0  0  0  0
  5  6  1  0  0  0  0
  5 31  1  0  0  0  0
  6  7  2  0  0  0  0
  6 32  1  0  0  0  0
  7  8  1  0  0  0  0
  7 33  1  0  0  0  0
  8  9  1  0  0  0  0
  9 14  2  0  0  0  0
  9 10  1  0  0  0  0
 10 11  2  0  0  0  0
 10 34  1  0  0  0  0
 11 12  1  0  0  0  0
 11 35  1  0  0  0  0
 12 13  2  0  0  0  0
 12 15  1  0  0  0  0
 13 14  1  0  0  0  0
 13 36  1  0  0  0  0
 14 37  1  0  0  0  0
 15 16  1  0  0  0  0
 15 38  1  0  0  0  0
 15 39  1  0  0  0  0
 16 24  1  0  0  0  0
 16 40  1  0  0  0  0
 16 41  1  0  0  0  0
 17 21  2  0  0  0  0
 17 18  1  0  0  0  0
 17 42  1  0  0  0  0
 18 19  2  0  0  0  0
 18 43  1  0  0  0  0
 19 44  1  0  0  0  0
 20 25  2  0  0  0  0
 20 21  1  0  0  0  0
 21 26  1  0  0  0  0
 22 24  1  0  0  0  0
 22 23  2  0  0  0  0
 24 45  1  0  0  0  0
 26 46  1  0  0  0  0
M  END
>  <lm5_entropy_jk>
25.46788887432381

>  <number_of_rotatable_bonds>
7

>  <deltaG_kcalmol>
-6.50

>  <charge>
0

$$$$
