5QD2
 OpenBabel11252210453D

 83 86  0  0  1  0  0  0  0  0999 V2000
   30.4000    5.8500   15.8430 N   0  0  0  0  0  0  0  0  0  0  0  0
   31.5890    6.0630   14.9950 C   0  0  1  0  0  0  0  0  0  0  0  0
   32.6560    6.9280   15.6950 C   0  0  0  0  0  0  0  0  0  0  0  0
   32.0890    8.2280   16.2100 C   0  0  0  0  0  0  0  0  0  0  0  0
   31.9090    8.3860   17.5950 C   0  0  0  0  0  0  0  0  0  0  0  0
   31.4320    9.6020   18.0870 C   0  0  0  0  0  0  0  0  0  0  0  0
   31.0470   10.6470   17.2150 C   0  0  0  0  0  0  0  0  0  0  0  0
   31.1990   10.4540   15.8490 C   0  0  0  0  0  0  0  0  0  0  0  0
   31.7400    9.2610   15.3390 C   0  0  0  0  0  0  0  0  0  0  0  0
   31.2530    9.9200   19.4110 O   0  0  0  0  0  0  0  0  0  0  0  0
   31.8390    9.0750   20.4490 C   0  0  0  0  0  0  0  0  0  0  0  0
   30.7450    8.3710   21.2560 C   0  0  0  0  0  0  0  0  0  0  0  0
   29.6460    7.6980   20.4240 C   0  0  0  0  0  0  0  0  0  0  0  0
   28.6340    8.7410   19.9410 C   0  0  0  0  0  0  0  0  0  0  0  0
   27.3590    8.1330   19.5810 O   0  0  0  0  0  0  0  0  0  0  0  0
   27.2890    7.3230   18.4810 C   0  0  0  0  0  0  0  0  0  0  0  0
   28.3000    7.1380   17.5360 C   0  0  0  0  0  0  0  0  0  0  0  0
   28.0600    6.2470   16.4800 C   0  0  0  0  0  0  0  0  0  0  0  0
   26.8670    5.5410   16.3770 C   0  0  0  0  0  0  0  0  0  0  0  0
   25.8340    5.7880   17.3100 C   0  0  0  0  0  0  0  0  0  0  0  0
   26.0330    6.6810   18.3560 C   0  0  0  0  0  0  0  0  0  0  0  0
   24.5040    5.0980   17.1410 C   0  0  0  0  0  0  0  0  0  0  0  0
   23.9940    4.8940   18.4840 O   0  0  0  0  0  0  0  0  0  0  0  0
   22.5530    4.8530   18.5460 C   0  0  0  0  0  0  0  0  0  0  0  0
   29.0950    6.1380   15.4000 C   0  0  0  0  0  0  0  0  0  0  0  0
   28.8500    6.2630   14.2080 O   0  0  0  0  0  0  0  0  0  0  0  0
   32.1680    4.6470   14.6780 C   0  0  2  0  0  0  0  0  0  0  0  0
   33.2570    4.7510   13.7420 O   0  0  0  0  0  0  0  0  0  0  0  0
   31.1270    3.7960   13.9270 C   0  0  0  0  0  0  0  0  0  0  0  0
   31.7780    2.4880   13.4900 N   0  3  0  0  0  0  0  0  0  0  0  0
   30.9530    1.7660   12.4190 C   0  0  0  0  0  0  0  0  0  0  0  0
   30.8330    2.5520   11.1350 C   0  0  0  0  0  0  0  0  0  0  0  0
   31.9620    3.0920   10.5060 C   0  0  0  0  0  0  0  0  0  0  0  0
   31.8630    3.7330    9.2640 C   0  0  0  0  0  0  0  0  0  0  0  0
   30.5980    3.8580    8.6660 C   0  0  0  0  0  0  0  0  0  0  0  0
   29.4660    3.3410    9.3000 C   0  0  0  0  0  0  0  0  0  0  0  0
   29.5760    2.6860   10.5310 C   0  0  0  0  0  0  0  0  0  0  0  0
   33.1080    4.2790    8.5860 C   0  0  0  0  0  0  0  0  0  0  0  0
   33.6650    5.4540    9.4020 C   0  0  0  0  0  0  0  0  0  0  0  0
   34.1660    3.1800    8.3990 C   0  0  0  0  0  0  0  0  0  0  0  0
   30.6190    5.7400   16.8510 H   0  0  0  0  0  0  0  0  0  0  0  0
   31.3000    6.5600   14.0360 H   0  0  0  0  0  0  0  0  0  0  0  0
   33.4760    7.1350   14.9580 H   0  0  0  0  0  0  0  0  0  0  0  0
   33.1100    6.3440   16.5340 H   0  0  0  0  0  0  0  0  0  0  0  0
   32.1450    7.5530   18.2460 H   0  0  0  0  0  0  0  0  0  0  0  0
   30.6680   11.5850   17.6210 H   0  0  0  0  0  0  0  0  0  0  0  0
   30.8990   11.2440   15.1560 H   0  0  0  0  0  0  0  0  0  0  0  0
   31.9030    9.1490   14.2700 H   0  0  0  0  0  0  0  0  0  0  0  0
   32.5580    8.3550   20.0140 H   0  0  0  0  0  0  0  0  0  0  0  0
   32.3630    9.8430   21.0700 H   0  0  0  0  0  0  0  0  0  0  0  0
   31.2430    7.5860   21.8840 H   0  0  0  0  0  0  0  0  0  0  0  0
   30.2610    9.1120   21.9360 H   0  0  0  0  0  0  0  0  0  0  0  0
   29.1250    6.9480   21.0670 H   0  0  0  0  0  0  0  0  0  0  0  0
   30.1080    7.1600   19.5620 H   0  0  0  0  0  0  0  0  0  0  0  0
   29.0260    9.3340   19.0870 H   0  0  0  0  0  0  0  0  0  0  0  0
   28.2940    9.3990   20.7790 H   0  0  0  0  0  0  0  0  0  0  0  0
   29.2610    7.6500   17.6020 H   0  0  0  0  0  0  0  0  0  0  0  0
   26.7330    4.7850   15.6040 H   0  0  0  0  0  0  0  0  0  0  0  0
   25.2370    6.8830   19.0830 H   0  0  0  0  0  0  0  0  0  0  0  0
   24.6070    4.0920   16.6720 H   0  0  0  0  0  0  0  0  0  0  0  0
   23.8130    5.7440   16.5420 H   0  0  0  0  0  0  0  0  0  0  0  0
   32.5370    4.1500   15.6040 H   0  0  0  0  0  0  0  0  0  0  0  0
   30.2490    3.5720   14.5990 H   0  0  0  0  0  0  0  0  0  0  0  0
   30.7750    4.3460   13.0080 H   0  0  0  0  0  0  0  0  0  0  0  0
   31.8670    1.8720   14.3490 H   0  0  0  0  0  0  0  0  0  0  0  0
   32.7560    2.7100   13.1010 H   0  0  0  0  0  0  0  0  0  0  0  0
   31.4530    0.7760   12.2020 H   0  0  0  0  0  0  0  0  0  0  0  0
   29.9300    1.5570   12.8530 H   0  0  0  0  0  0  0  0  0  0  0  0
   32.9360    3.0420   10.9830 H   0  0  0  0  0  0  0  0  0  0  0  0
   30.4950    4.3700    7.7030 H   0  0  0  0  0  0  0  0  0  0  0  0
   28.4800    3.4380    8.8300 H   0  0  0  0  0  0  0  0  0  0  0  0
   28.6840    2.2750   11.0140 H   0  0  0  0  0  0  0  0  0  0  0  0
   32.8290    4.6680    7.5690 H   0  0  0  0  0  0  0  0  0  0  0  0
   34.1320    4.9120   14.2870 H   0  0  0  0  0  0  0  0  0  0  0  0
   22.3730    4.6160   19.6190 H   0  0  0  0  0  0  0  0  0  0  0  0
   22.1300    5.8470   18.2770 H   0  0  0  0  0  0  0  0  0  0  0  0
   22.1570    4.0520   17.8860 H   0  0  0  0  0  0  0  0  0  0  0  0
   32.9830    6.3300    9.3160 H   0  0  0  0  0  0  0  0  0  0  0  0
   34.6680    5.7400    9.0190 H   0  0  0  0  0  0  0  0  0  0  0  0
   33.7620    5.1790   10.4730 H   0  0  0  0  0  0  0  0  0  0  0  0
   33.7730    2.3660    7.7540 H   0  0  0  0  0  0  0  0  0  0  0  0
   35.0690    3.6100    7.9020 H   0  0  0  0  0  0  0  0  0  0  0  0
   34.4780    2.7560    9.3770 H   0  0  0  0  0  0  0  0  0  0  0  0
  1  2  1  0  0  0  0
  1 25  1  0  0  0  0
  2  3  1  0  0  0  0
  2 27  1  0  0  0  0
  2 42  1  6  0  0  0
  3  4  1  0  0  0  0
  4  5  2  0  0  0  0
  4  9  1  0  0  0  0
  5  6  1  0  0  0  0
  6  7  2  0  0  0  0
  6 10  1  0  0  0  0
  7  8  1  0  0  0  0
  8  9  2  0  0  0  0
 10 11  1  0  0  0  0
 11 12  1  0  0  0  0
 12 13  1  0  0  0  0
 13 14  1  0  0  0  0
 14 15  1  0  0  0  0
 15 16  1  0  0  0  0
 16 17  2  0  0  0  0
 16 21  1  0  0  0  0
 17 18  1  0  0  0  0
 18 19  2  0  0  0  0
 18 25  1  0  0  0  0
 19 20  1  0  0  0  0
 20 21  2  0  0  0  0
 20 22  1  0  0  0  0
 22 23  1  0  0  0  0
 23 24  1  0  0  0  0
 25 26  2  0  0  0  0
 27 28  1  0  0  0  0
 27 29  1  0  0  0  0
 27 62  1  1  0  0  0
 29 30  1  0  0  0  0
 30 31  1  0  0  0  0
 31 32  1  0  0  0  0
 32 33  2  0  0  0  0
 32 37  1  0  0  0  0
 33 34  1  0  0  0  0
 34 35  2  0  0  0  0
 34 38  1  0  0  0  0
 35 36  1  0  0  0  0
 36 37  2  0  0  0  0
 38 39  1  0  0  0  0
 38 40  1  0  0  0  0
 41  1  1  0  0  0  0
 43  3  1  0  0  0  0
 44  3  1  0  0  0  0
 45  5  1  0  0  0  0
 46  7  1  0  0  0  0
 47  8  1  0  0  0  0
 48  9  1  0  0  0  0
 49 11  1  0  0  0  0
 50 11  1  0  0  0  0
 51 12  1  0  0  0  0
 52 12  1  0  0  0  0
 53 13  1  0  0  0  0
 54 13  1  0  0  0  0
 55 14  1  0  0  0  0
 56 14  1  0  0  0  0
 57 17  1  0  0  0  0
 58 19  1  0  0  0  0
 59 21  1  0  0  0  0
 60 22  1  0  0  0  0
 61 22  1  0  0  0  0
 63 29  1  0  0  0  0
 64 29  1  0  0  0  0
 65 30  1  0  0  0  0
 66 30  1  0  0  0  0
 67 31  1  0  0  0  0
 68 31  1  0  0  0  0
 69 33  1  0  0  0  0
 70 35  1  0  0  0  0
 71 36  1  0  0  0  0
 72 37  1  0  0  0  0
 73 38  1  0  0  0  0
 74 28  1  0  0  0  0
 75 24  1  0  0  0  0
 76 24  1  0  0  0  0
 77 24  1  0  0  0  0
 78 39  1  0  0  0  0
 79 39  1  0  0  0  0
 80 39  1  0  0  0  0
 81 40  1  0  0  0  0
 82 40  1  0  0  0  0
 83 40  1  0  0  0  0
M  CHG  1  30   1
M  END
>  <IC50_NM>
72

>  <number_of_rotatable_bonds>
8

>  <lm5_entropy_jk>
40.43659014618979

>  <charge>
1

>  <old_name>
BACE_15

>  <xray_resolution>
2.5

$$$$
