1ZOG
 OpenBabel11252210453D

 19 20  0  0  1  0  0  0  0  0999 V2000
   21.6520    8.8850   18.7990 C   0  0  0  0  0  0  0  0  0  0  0  0
   22.6320    8.2420   17.9930 C   0  0  0  0  0  0  0  0  0  0  0  0
   23.3270    7.1110   18.4780 C   0  0  0  0  0  0  0  0  0  0  0  0
   21.3880    8.4140   20.1120 C   0  0  0  0  0  0  0  0  0  0  0  0
   21.9060    6.6360   21.7380 N   0  0  0  0  0  0  0  0  0  0  0  0
   22.0690    7.2700   20.5510 C   0  0  0  0  0  0  0  0  0  0  0  0
   22.9710    6.6420   19.7450 C   0  0  0  0  0  0  0  0  0  0  0  0
   23.4160    5.5230   20.3750 N   0  0  0  0  0  0  0  0  0  0  0  0
   22.7420    5.5970   21.5910 C   0  0  0  0  0  0  0  0  0  0  0  0
   23.2580    2.7900   21.6830 C   0  0  0  0  0  0  0  0  0  0  0  0
   20.1060    9.2600   21.2630 Br  0  0  0  0  0  0  0  0  0  0  0  0
   20.6560   10.3770   18.0920 Br  0  0  0  0  0  0  0  0  0  0  0  0
   22.9910    8.8670   16.2160 Br  0  0  0  0  0  0  0  0  0  0  0  0
   24.6880    6.2320   17.4410 Br  0  0  0  0  0  0  0  0  0  0  0  0
   22.7790    4.2450   22.7260 S   0  0  0  0  0  0  0  0  0  0  0  0
   23.9910    4.7730   20.0200 H   0  0  0  0  0  0  0  0  0  0  0  0
   22.5510    2.6750   20.8480 H   0  0  0  0  0  0  0  0  0  0  0  0
   23.2150    1.8740   22.2880 H   0  0  0  0  0  0  0  0  0  0  0  0
   24.2760    2.8890   21.2880 H   0  0  0  0  0  0  0  0  0  0  0  0
  1  2  2  0  0  0  0
  1  4  1  0  0  0  0
  1 12  1  0  0  0  0
  2  3  1  0  0  0  0
  2 13  1  0  0  0  0
  3  7  2  0  0  0  0
  3 14  1  0  0  0  0
  4  6  2  0  0  0  0
  4 11  1  0  0  0  0
  5  6  1  0  0  0  0
  5  9  2  0  0  0  0
  6  7  1  0  0  0  0
  7  8  1  0  0  0  0
  8  9  1  0  0  0  0
  8 16  1  0  0  0  0
  9 15  1  0  0  0  0
 10 15  1  0  0  0  0
 10 17  1  0  0  0  0
 10 18  1  0  0  0  0
 10 19  1  0  0  0  0
M  END
>  <charge>
0

>  <Ki_NM>
70

>  <number_of_rotatable_bonds>
1

>  <lm5_entropy_jk>
23.154104138289753

$$$$
