1ZOG
 OpenBabel11252210453D

 19 20  0  0  1  0  0  0  0  0999 V2000
   21.8930    8.7270   18.5230 C   0  0  0  0  0  0  0  0  0  0  0  0
   22.8390    8.1280   17.6440 C   0  0  0  0  0  0  0  0  0  0  0  0
   23.5300    6.9570   18.0360 C   0  0  0  0  0  0  0  0  0  0  0  0
   21.6660    8.1780   19.8110 C   0  0  0  0  0  0  0  0  0  0  0  0
   22.2530    6.3330   21.3310 N   0  0  0  0  0  0  0  0  0  0  0  0
   22.3620    7.0170   20.1660 C   0  0  0  0  0  0  0  0  0  0  0  0
   23.2310    6.4290   19.2960 C   0  0  0  0  0  0  0  0  0  0  0  0
   23.7110    5.2890   19.8620 N   0  0  0  0  0  0  0  0  0  0  0  0
   23.0870    5.3080   21.1070 C   0  0  0  0  0  0  0  0  0  0  0  0
   24.0050    2.5950   21.1990 C   0  0  0  0  0  0  0  0  0  0  0  0
   20.4250    8.9550   21.0520 Br  0  0  0  0  0  0  0  0  0  0  0  0
   20.9170   10.2900   17.9640 Br  0  0  0  0  0  0  0  0  0  0  0  0
   23.1820    8.9000   15.9150 Br  0  0  0  0  0  0  0  0  0  0  0  0
   24.8250    6.1060   16.9000 Br  0  0  0  0  0  0  0  0  0  0  0  0
   23.2040    3.9290   22.2050 S   0  0  0  0  0  0  0  0  0  0  0  0
   24.2700    4.5560   19.4520 H   0  0  0  0  0  0  0  0  0  0  0  0
   23.3980    2.3730   20.3100 H   0  0  0  0  0  0  0  0  0  0  0  0
   24.0660    1.6750   21.7960 H   0  0  0  0  0  0  0  0  0  0  0  0
   25.0200    2.8740   20.8930 H   0  0  0  0  0  0  0  0  0  0  0  0
  1  2  2  0  0  0  0
  1  4  1  0  0  0  0
  1 12  1  0  0  0  0
  2  3  1  0  0  0  0
  2 13  1  0  0  0  0
  3  7  2  0  0  0  0
  3 14  1  0  0  0  0
  4  6  2  0  0  0  0
  4 11  1  0  0  0  0
  5  6  1  0  0  0  0
  5  9  2  0  0  0  0
  6  7  1  0  0  0  0
  7  8  1  0  0  0  0
  8  9  1  0  0  0  0
  8 16  1  0  0  0  0
  9 15  1  0  0  0  0
 10 15  1  0  0  0  0
 10 17  1  0  0  0  0
 10 18  1  0  0  0  0
 10 19  1  0  0  0  0
M  END
>  <charge>
0

>  <Ki_NM>
70

>  <number_of_rotatable_bonds>
1

>  <lm5_entropy_jk>
23.154104138289753

$$$$
