2Q5K_align_H.pdb
 OpenBabel11252210453D

 94 97  0  0  1  0  0  0  0  0999 V2000
    7.4620   -9.3160   18.4440 C   0  0  0  0  0  0  0  0  0  0  0  0
    7.3460   -6.5620   17.4700 N   0  0  0  0  0  0  0  0  0  0  0  0
    7.1500   -5.9170   19.6720 O   0  0  0  0  0  0  0  0  0  0  0  0
    7.5710   -7.6830   16.5220 C   0  0  0  0  0  0  0  0  0  0  0  0
    7.0090   -8.1700   19.2730 N   0  0  0  0  0  0  0  0  0  0  0  0
    6.3310   -4.9540   15.0190 O   0  0  0  0  0  0  0  0  0  0  0  0
    7.2070   -6.8360   18.8520 C   0  0  0  0  0  0  0  0  0  0  0  0
    5.6890   -3.6870   16.8110 N   0  0  0  0  0  0  0  0  0  0  0  0
    2.6460    1.2290   12.7690 O   0  0  0  0  0  0  0  0  0  0  0  0
    7.4570    0.4430   12.9070 C   0  0  0  0  0  0  0  0  0  0  0  0
    4.7550   -0.0350   13.7690 N   0  0  0  0  0  0  0  0  0  0  0  0
    5.1680    0.5120   16.5270 O   0  0  0  0  0  0  0  0  0  0  0  0
    7.1930    1.7280   12.4050 C   0  0  0  0  0  0  0  0  0  0  0  0
    4.2220   -1.9100   12.5980 O   0  0  0  0  0  0  0  0  0  0  0  0
    7.4030    2.0140   11.0550 C   0  0  0  0  0  0  0  0  0  0  0  0
    7.8820    1.0230   10.1930 C   0  0  0  0  0  0  0  0  0  0  0  0
    8.1840   -0.2460   10.6980 C   0  0  0  0  0  0  0  0  0  0  0  0
    7.9730   -0.5400   12.0470 C   0  0  0  0  0  0  0  0  0  0  0  0
    7.6360   -5.1590   17.1020 C   0  0  2  0  0  0  0  0  0  0  0  0
    6.4960   -4.6450   16.1850 C   0  0  0  0  0  0  0  0  0  0  0  0
    4.4110   -3.2030   16.2320 C   0  0  1  0  0  0  0  0  0  0  0  0
    9.0370   -4.8940   16.4870 C   0  0  0  0  0  0  0  0  0  0  0  0
    9.1150   -3.4350   16.0120 C   0  0  0  0  0  0  0  0  0  0  0  0
   10.1150   -5.1960   17.5400 C   0  0  0  0  0  0  0  0  0  0  0  0
    2.2610   -7.2430   15.5780 C   0  0  0  0  0  0  0  0  0  0  0  0
    2.8920   -8.1060   16.4780 C   0  0  0  0  0  0  0  0  0  0  0  0
    3.6260   -7.5780   17.5450 C   0  0  0  0  0  0  0  0  0  0  0  0
    3.7290   -6.1950   17.7080 C   0  0  0  0  0  0  0  0  0  0  0  0
    3.1060   -5.3250   16.7980 C   0  0  0  0  0  0  0  0  0  0  0  0
    2.3670   -5.8590   15.7310 C   0  0  0  0  0  0  0  0  0  0  0  0
    3.2060   -3.8400   16.9850 C   0  0  0  0  0  0  0  0  0  0  0  0
    4.2950   -1.6710   16.3950 C   0  0  0  0  0  0  0  0  0  0  0  0
    5.5100   -0.8150   16.0310 C   0  0  1  0  0  0  0  0  0  0  0  0
    5.8510   -0.6870   14.5180 C   0  0  2  0  0  0  0  0  0  0  0  0
    4.0440   -0.7160   12.7980 C   0  0  0  0  0  0  0  0  0  0  0  0
    3.0640    0.0980   11.9530 C   0  0  0  0  0  0  0  0  0  0  0  0
    1.9840    2.2130   12.0180 C   0  0  0  0  0  0  0  0  0  0  0  0
    7.1610    0.1290   14.3460 C   0  0  0  0  0  0  0  0  0  0  0  0
    0.5910    2.1210   11.8560 C   0  0  0  0  0  0  0  0  0  0  0  0
   -0.0560    3.1490   11.1530 C   0  0  0  0  0  0  0  0  0  0  0  0
    0.6700    4.2170   10.6260 C   0  0  0  0  0  0  0  0  0  0  0  0
    2.0510    4.3000   10.8200 C   0  0  0  0  0  0  0  0  0  0  0  0
    2.7320    3.3030   11.5310 C   0  0  0  0  0  0  0  0  0  0  0  0
    4.2000    3.3860   11.7610 C   0  0  0  0  0  0  0  0  0  0  0  0
   -0.1780    0.9650   12.4000 C   0  0  0  0  0  0  0  0  0  0  0  0
    8.2740   -8.8590   17.2220 C   0  0  0  0  0  0  0  0  0  0  0  0
    6.5380   -9.8600   18.1000 H   0  0  0  0  0  0  0  0  0  0  0  0
    8.0770  -10.0160   19.0700 H   0  0  0  0  0  0  0  0  0  0  0  0
    8.1800   -7.3480   15.6470 H   0  0  0  0  0  0  0  0  0  0  0  0
    6.5580   -8.0190   16.1640 H   0  0  0  0  0  0  0  0  0  0  0  0
    7.1010   -8.3200   20.3010 H   0  0  0  0  0  0  0  0  0  0  0  0
    5.7730   -3.5280   17.8340 H   0  0  0  0  0  0  0  0  0  0  0  0
    4.5580    0.9430   13.9990 H   0  0  0  0  0  0  0  0  0  0  0  0
    6.0380    0.8500   16.9570 H   0  0  0  0  0  0  0  0  0  0  0  0
    6.8250    2.5130   13.0700 H   0  0  0  0  0  0  0  0  0  0  0  0
    7.2000    3.0190   10.6740 H   0  0  0  0  0  0  0  0  0  0  0  0
    8.0230    1.2470    9.1360 H   0  0  0  0  0  0  0  0  0  0  0  0
    8.5920   -1.0060   10.0340 H   0  0  0  0  0  0  0  0  0  0  0  0
    8.2240   -1.5270   12.4350 H   0  0  0  0  0  0  0  0  0  0  0  0
    7.5940   -4.5720   18.0670 H   0  0  0  0  0  0  0  0  0  0  0  0
    4.3780   -3.4800   15.1470 H   0  0  0  0  0  0  0  0  0  0  0  0
    9.2070   -5.5530   15.6010 H   0  0  0  0  0  0  0  0  0  0  0  0
   10.1760   -3.1650   15.8160 H   0  0  0  0  0  0  0  0  0  0  0  0
    8.5370   -3.2950   15.0740 H   0  0  0  0  0  0  0  0  0  0  0  0
    8.7130   -2.7420   16.7820 H   0  0  0  0  0  0  0  0  0  0  0  0
   11.1160   -4.8950   17.1590 H   0  0  0  0  0  0  0  0  0  0  0  0
    9.9190   -4.6300   18.4740 H   0  0  0  0  0  0  0  0  0  0  0  0
   10.1460   -6.2830   17.7640 H   0  0  0  0  0  0  0  0  0  0  0  0
    1.6850   -7.6500   14.7510 H   0  0  0  0  0  0  0  0  0  0  0  0
    2.8170   -9.1880   16.3530 H   0  0  0  0  0  0  0  0  0  0  0  0
    4.1210   -8.2520   18.2500 H   0  0  0  0  0  0  0  0  0  0  0  0
    4.2960   -5.7880   18.5490 H   0  0  0  0  0  0  0  0  0  0  0  0
    1.8560   -5.1960   15.0340 H   0  0  0  0  0  0  0  0  0  0  0  0
    2.2690   -3.3430   16.6360 H   0  0  0  0  0  0  0  0  0  0  0  0
    3.3020   -3.6060   18.0790 H   0  0  0  0  0  0  0  0  0  0  0  0
    4.1190   -1.4680   17.4840 H   0  0  0  0  0  0  0  0  0  0  0  0
    3.3990   -1.3240   15.8340 H   0  0  0  0  0  0  0  0  0  0  0  0
    6.4180   -1.1600   16.5860 H   0  0  0  0  0  0  0  0  0  0  0  0
    6.0230   -1.7230   14.1130 H   0  0  0  0  0  0  0  0  0  0  0  0
    3.5710    0.4700   11.0320 H   0  0  0  0  0  0  0  0  0  0  0  0
    2.1630   -0.5010   11.6890 H   0  0  0  0  0  0  0  0  0  0  0  0
    7.0790    1.0810   14.9330 H   0  0  0  0  0  0  0  0  0  0  0  0
    8.0010   -0.4450   14.8100 H   0  0  0  0  0  0  0  0  0  0  0  0
   -1.1360    3.0920   11.0030 H   0  0  0  0  0  0  0  0  0  0  0  0
    0.1570    4.9850   10.0390 H   0  0  0  0  0  0  0  0  0  0  0  0
    2.6090    5.1340   10.3860 H   0  0  0  0  0  0  0  0  0  0  0  0
    4.5190    4.4280   12.0060 H   0  0  0  0  0  0  0  0  0  0  0  0
    4.5050    2.7290   12.6130 H   0  0  0  0  0  0  0  0  0  0  0  0
    4.7490    3.0670   10.8430 H   0  0  0  0  0  0  0  0  0  0  0  0
   -0.2810    0.1800   11.6140 H   0  0  0  0  0  0  0  0  0  0  0  0
    0.3290    0.5240   13.2890 H   0  0  0  0  0  0  0  0  0  0  0  0
   -1.1990    1.3000   12.7030 H   0  0  0  0  0  0  0  0  0  0  0  0
    8.3450   -9.7150   16.5110 H   0  0  0  0  0  0  0  0  0  0  0  0
    9.3080   -8.5770   17.5300 H   0  0  0  0  0  0  0  0  0  0  0  0
  1  5  1  0  0  0  0
  1 46  1  0  0  0  0
  1 47  1  0  0  0  0
  1 48  1  0  0  0  0
  2  4  1  0  0  0  0
  2  7  1  0  0  0  0
  2 19  1  0  0  0  0
  3  7  2  0  0  0  0
  4 46  1  0  0  0  0
  4 49  1  0  0  0  0
  4 50  1  0  0  0  0
  5  7  1  0  0  0  0
  5 51  1  0  0  0  0
  6 20  2  0  0  0  0
  8 20  1  0  0  0  0
  8 21  1  0  0  0  0
  8 52  1  0  0  0  0
  9 36  1  0  0  0  0
  9 37  1  0  0  0  0
 10 13  2  0  0  0  0
 10 18  1  0  0  0  0
 10 38  1  0  0  0  0
 11 34  1  0  0  0  0
 11 35  1  0  0  0  0
 11 53  1  0  0  0  0
 12 33  1  0  0  0  0
 12 54  1  0  0  0  0
 13 15  1  0  0  0  0
 13 55  1  0  0  0  0
 14 35  2  0  0  0  0
 15 16  2  0  0  0  0
 15 56  1  0  0  0  0
 16 17  1  0  0  0  0
 16 57  1  0  0  0  0
 17 18  2  0  0  0  0
 17 58  1  0  0  0  0
 18 59  1  0  0  0  0
 19 20  1  0  0  0  0
 19 22  1  0  0  0  0
 19 60  1  1  0  0  0
 21 31  1  0  0  0  0
 21 32  1  0  0  0  0
 21 61  1  6  0  0  0
 22 23  1  0  0  0  0
 22 24  1  0  0  0  0
 22 62  1  0  0  0  0
 23 63  1  0  0  0  0
 23 64  1  0  0  0  0
 23 65  1  0  0  0  0
 24 66  1  0  0  0  0
 24 67  1  0  0  0  0
 24 68  1  0  0  0  0
 25 26  2  0  0  0  0
 25 30  1  0  0  0  0
 25 69  1  0  0  0  0
 26 27  1  0  0  0  0
 26 70  1  0  0  0  0
 27 28  2  0  0  0  0
 27 71  1  0  0  0  0
 28 29  1  0  0  0  0
 28 72  1  0  0  0  0
 29 30  2  0  0  0  0
 29 31  1  0  0  0  0
 30 73  1  0  0  0  0
 31 74  1  0  0  0  0
 31 75  1  0  0  0  0
 32 33  1  0  0  0  0
 32 76  1  0  0  0  0
 32 77  1  0  0  0  0
 33 34  1  0  0  0  0
 33 78  1  1  0  0  0
 34 38  1  0  0  0  0
 34 79  1  6  0  0  0
 35 36  1  0  0  0  0
 36 80  1  0  0  0  0
 36 81  1  0  0  0  0
 37 39  2  0  0  0  0
 37 43  1  0  0  0  0
 38 82  1  0  0  0  0
 38 83  1  0  0  0  0
 39 40  1  0  0  0  0
 39 45  1  0  0  0  0
 40 41  2  0  0  0  0
 40 84  1  0  0  0  0
 41 42  1  0  0  0  0
 41 85  1  0  0  0  0
 42 43  2  0  0  0  0
 42 86  1  0  0  0  0
 43 44  1  0  0  0  0
 44 87  1  0  0  0  0
 44 88  1  0  0  0  0
 44 89  1  0  0  0  0
 45 90  1  0  0  0  0
 45 91  1  0  0  0  0
 45 92  1  0  0  0  0
 46 93  1  0  0  0  0
 46 94  1  0  0  0  0
M  END
>  <charge>
0

>  <KI_NM>
0.018

>  <number_of_rotatable_bonds>
17

>  <lm5_entropy_jk>
46.32548928686939

>  <ligand_crystal_conformation>
A

$$$$
