1zoe_B
 OpenBabel11252210453D

 23 24  0  0  1  0  0  0  0  0999 V2000
   21.5600    8.9760   18.9580 C   0  0  0  0  0  0  0  0  0  0  0  0
   21.3100    8.5200   20.2800 C   0  0  0  0  0  0  0  0  0  0  0  0
   21.9330    7.3770   20.7690 C   0  0  0  0  0  0  0  0  0  0  0  0
   22.4720    8.3230   18.1320 C   0  0  0  0  0  0  0  0  0  0  0  0
   23.4910    5.4730   20.0860 N   0  0  0  0  0  0  0  0  0  0  0  0
   23.0900    7.1530   18.5990 C   0  0  0  0  0  0  0  0  0  0  0  0
   22.7790    6.6700   19.9170 C   0  0  0  0  0  0  0  0  0  0  0  0
   24.1570    5.2360   18.8340 C   0  0  0  0  0  0  0  0  0  0  0  0
   23.9750    6.2820   17.9600 N   0  0  0  0  0  0  0  0  0  0  0  0
   24.7510    4.0020   18.5260 N   0  0  0  0  0  0  0  0  0  0  0  0
   25.2030    3.1770   19.6810 C   0  0  0  0  0  0  0  0  0  0  0  0
   25.7140    3.9950   17.3870 C   0  0  0  0  0  0  0  0  0  0  0  0
   20.6450   10.5050   18.2950 Br  0  0  0  0  0  0  0  0  0  0  0  0
   21.7550    6.6490   22.5060 Br  0  0  0  0  0  0  0  0  0  0  0  0
   22.9740    8.8730   16.4000 Br  0  0  0  0  0  0  0  0  0  0  0  0
   20.1070    9.4380   21.4240 Br  0  0  0  0  0  0  0  0  0  0  0  0
   23.3580    4.8110   20.8520 H   0  0  0  0  0  0  0  0  0  0  0  0
   25.3300    4.6460   16.5610 H   0  0  0  0  0  0  0  0  0  0  0  0
   25.7360    2.2660   19.2910 H   0  0  0  0  0  0  0  0  0  0  0  0
   25.7610    2.9350   17.0090 H   0  0  0  0  0  0  0  0  0  0  0  0
   24.3010    2.8020   20.2380 H   0  0  0  0  0  0  0  0  0  0  0  0
   26.7390    4.3210   17.6870 H   0  0  0  0  0  0  0  0  0  0  0  0
   25.8880    3.7150   20.3780 H   0  0  0  0  0  0  0  0  0  0  0  0
  1  2  2  0  0  0  0
  1  4  1  0  0  0  0
  1 13  1  0  0  0  0
  2  3  1  0  0  0  0
  2 16  1  0  0  0  0
  3  7  2  0  0  0  0
  3 14  1  0  0  0  0
  4  6  2  0  0  0  0
  4 15  1  0  0  0  0
  5  7  1  0  0  0  0
  5  8  1  0  0  0  0
  5 17  1  0  0  0  0
  6  7  1  0  0  0  0
  6  9  1  0  0  0  0
  8  9  2  0  0  0  0
  8 10  1  0  0  0  0
 10 11  1  0  0  0  0
 10 12  1  0  0  0  0
 11 19  1  0  0  0  0
 11 21  1  0  0  0  0
 11 23  1  0  0  0  0
 12 18  1  0  0  0  0
 12 20  1  0  0  0  0
 12 22  1  0  0  0  0
M  END
>  <charge>
0

>  <Ki_NM>
45

>  <number_of_rotatable_bonds>
1

>  <lm5_entropy_jk>
28.431029787763457

$$$$
