3RK7
 OpenBabel11252210453D

 37 39  0  0  1  0  0  0  0  0999 V2000
   64.3540  154.6580  -48.5090 N   0  0  0  0  0  0  0  0  0  0  0  0
   65.7850  154.3850  -50.3710 N   0  0  0  0  0  0  0  0  0  0  0  0
   67.3490  153.6020  -52.0280 N   0  0  0  0  0  0  0  0  0  0  0  0
   70.8780  150.1300  -47.5320 N   0  0  0  0  0  0  0  0  0  0  0  0
   61.6260  153.1070  -42.7330 N   0  0  0  0  0  0  0  0  0  0  0  0
   63.7750  154.4250  -47.2230 C   0  0  0  0  0  0  0  0  0  0  0  0
   65.4620  154.0880  -49.0850 C   0  0  0  0  0  0  0  0  0  0  0  0
   66.9150  153.6080  -50.7460 C   0  0  0  0  0  0  0  0  0  0  0  0
   67.5030  152.8090  -49.7340 C   0  0  0  0  0  0  0  0  0  0  0  0
   68.5980  151.9180  -49.9300 C   0  0  0  0  0  0  0  0  0  0  0  0
   69.0170  151.0210  -48.8090 C   0  0  0  0  0  0  0  0  0  0  0  0
   68.1320  150.1430  -48.1770 C   0  0  0  0  0  0  0  0  0  0  0  0
   68.6360  149.2560  -47.2220 C   0  0  0  0  0  0  0  0  0  0  0  0
   70.0090  149.2640  -46.9370 C   0  0  0  0  0  0  0  0  0  0  0  0
   70.3800  151.0010  -48.4440 C   0  0  0  0  0  0  0  0  0  0  0  0
   62.8450  155.4050  -46.7980 C   0  0  0  0  0  0  0  0  0  0  0  0
   62.2800  155.3230  -45.5320 C   0  0  0  0  0  0  0  0  0  0  0  0
   62.6260  154.2660  -44.6700 C   0  0  0  0  0  0  0  0  0  0  0  0
   63.4800  153.2570  -45.1300 C   0  0  0  0  0  0  0  0  0  0  0  0
   64.0450  153.3170  -46.4100 C   0  0  0  0  0  0  0  0  0  0  0  0
   62.1270  154.2950  -43.2600 C   0  0  0  0  0  0  0  0  0  0  0  0
   69.2160  151.8570  -50.9920 O   0  0  0  0  0  0  0  0  0  0  0  0
   62.1060  155.3190  -42.5850 O   0  0  0  0  0  0  0  0  0  0  0  0
   66.6210  152.9380  -48.2560 S   0  0  0  0  0  0  0  0  0  0  0  0
   63.7480  155.2440  -49.1430 H   0  0  0  0  0  0  0  0  0  0  0  0
   66.9340  154.2100  -52.7560 H   0  0  0  0  0  0  0  0  0  0  0  0
   68.1950  153.0610  -52.2740 H   0  0  0  0  0  0  0  0  0  0  0  0
   67.0630  150.1270  -48.4140 H   0  0  0  0  0  0  0  0  0  0  0  0
   67.9700  148.5600  -46.7020 H   0  0  0  0  0  0  0  0  0  0  0  0
   70.4230  148.5550  -46.2050 H   0  0  0  0  0  0  0  0  0  0  0  0
   71.0850  151.7110  -48.9010 H   0  0  0  0  0  0  0  0  0  0  0  0
   62.5650  156.2260  -47.4620 H   0  0  0  0  0  0  0  0  0  0  0  0
   61.5620  156.0890  -45.2180 H   0  0  0  0  0  0  0  0  0  0  0  0
   63.7250  152.4020  -44.4910 H   0  0  0  0  0  0  0  0  0  0  0  0
   64.6660  152.4820  -46.7380 H   0  0  0  0  0  0  0  0  0  0  0  0
   61.7490  152.1980  -43.2370 H   0  0  0  0  0  0  0  0  0  0  0  0
   61.3990  153.0200  -41.7420 H   0  0  0  0  0  0  0  0  0  0  0  0
  1  6  1  0  0  0  0
  1  7  1  0  0  0  0
  1 25  1  0  0  0  0
  2  7  2  0  0  0  0
  2  8  1  0  0  0  0
  3  8  1  0  0  0  0
  3 26  1  0  0  0  0
  3 27  1  0  0  0  0
  4 14  2  0  0  0  0
  4 15  1  0  0  0  0
  5 21  1  0  0  0  0
  5 36  1  0  0  0  0
  5 37  1  0  0  0  0
  6 16  2  0  0  0  0
  6 20  1  0  0  0  0
  7 24  1  0  0  0  0
  8  9  2  0  0  0  0
  9 24  1  0  0  0  0
 10  9  1  0  0  0  0
 10 11  1  0  0  0  0
 10 22  2  0  0  0  0
 11 12  1  0  0  0  0
 11 15  2  0  0  0  0
 12 13  2  0  0  0  0
 12 28  1  0  0  0  0
 13 14  1  0  0  0  0
 13 29  1  0  0  0  0
 14 30  1  0  0  0  0
 15 31  1  0  0  0  0
 16 17  1  0  0  0  0
 16 32  1  0  0  0  0
 17 18  2  0  0  0  0
 17 33  1  0  0  0  0
 18 19  1  0  0  0  0
 18 21  1  0  0  0  0
 19 20  2  0  0  0  0
 19 34  1  0  0  0  0
 20 35  1  0  0  0  0
 21 23  2  0  0  0  0
M  END
>  <lm5_entropy_jk>
19.089102203703476

>  <number_of_rotatable_bonds>
5

>  <IC50_NM>
200

>  <charge>
0

$$$$
