1f0q-lig
 OpenBabel11252210453D

 30 32  0  0  1  0  0  0  0  0999 V2000
   22.1740    6.9140   21.1340 C   0  0  0  0  0  0  0  0  0  0  0  0
   21.5020    7.9930   21.5620 O   0  0  0  0  0  0  0  0  0  0  0  0
   22.2890    5.8510   22.0530 C   0  0  0  0  0  0  0  0  0  0  0  0
   22.9500    4.7010   21.6360 C   0  0  0  0  0  0  0  0  0  0  0  0
   22.9780    3.6750   22.5340 O   0  0  0  0  0  0  0  0  0  0  0  0
   23.5720    4.6070   20.3620 C   0  0  0  0  0  0  0  0  0  0  0  0
   23.4710    5.6750   19.4920 C   0  0  0  0  0  0  0  0  0  0  0  0
   24.1760    5.5950   18.1580 C   0  0  0  0  0  0  0  0  0  0  0  0
   24.9600    4.7060   17.9070 O   0  0  0  0  0  0  0  0  0  0  0  0
   23.8770    6.6790   17.1550 C   0  0  0  0  0  0  0  0  0  0  0  0
   24.3660    6.5350   15.8630 C   0  0  0  0  0  0  0  0  0  0  0  0
   24.1530    7.5500   14.9000 C   0  0  0  0  0  0  0  0  0  0  0  0
   24.6640    7.4130   13.5080 C   0  0  0  0  0  0  0  0  0  0  0  0
   23.4710    8.7080   15.2670 C   0  0  0  0  0  0  0  0  0  0  0  0
   22.9830    8.8430   16.5800 C   0  0  0  0  0  0  0  0  0  0  0  0
   22.3450    9.9650   17.0050 O   0  0  0  0  0  0  0  0  0  0  0  0
   23.1320    7.8150   17.5380 C   0  0  0  0  0  0  0  0  0  0  0  0
   22.5160    7.9220   18.8720 C   0  0  0  0  0  0  0  0  0  0  0  0
   21.8020    8.8790   19.1800 O   0  0  0  0  0  0  0  0  0  0  0  0
   22.7410    6.8360   19.8300 C   0  0  0  0  0  0  0  0  0  0  0  0
   22.3200   10.6700   16.2900 H   0  0  0  0  0  0  0  0  0  0  0  0
   21.3970    8.7140   20.7980 H   0  0  0  0  0  0  0  0  0  0  0  0
   21.8390    5.9160   23.0470 H   0  0  0  0  0  0  0  0  0  0  0  0
   23.3800    2.8370   22.1430 H   0  0  0  0  0  0  0  0  0  0  0  0
   24.1110    3.6970   20.0840 H   0  0  0  0  0  0  0  0  0  0  0  0
   24.9410    5.6450   15.5940 H   0  0  0  0  0  0  0  0  0  0  0  0
   25.4920    8.1580   13.3560 H   0  0  0  0  0  0  0  0  0  0  0  0
   23.3660    9.5130   14.5370 H   0  0  0  0  0  0  0  0  0  0  0  0
   23.8690    7.6740   12.7640 H   0  0  0  0  0  0  0  0  0  0  0  0
   25.0850    6.4090   13.2850 H   0  0  0  0  0  0  0  0  0  0  0  0
  1  2  1  0  0  0  0
  1  3  2  0  0  0  0
  1 20  1  0  0  0  0
  2 22  1  0  0  0  0
  3  4  1  0  0  0  0
  3 23  1  0  0  0  0
  4  5  1  0  0  0  0
  4  6  2  0  0  0  0
  5 24  1  0  0  0  0
  6  7  1  0  0  0  0
  6 25  1  0  0  0  0
  7  8  1  0  0  0  0
  7 20  2  0  0  0  0
  8  9  2  0  0  0  0
  8 10  1  0  0  0  0
 10 11  1  0  0  0  0
 10 17  2  0  0  0  0
 11 12  2  0  0  0  0
 11 26  1  0  0  0  0
 12 13  1  0  0  0  0
 12 14  1  0  0  0  0
 13 27  1  0  0  0  0
 13 29  1  0  0  0  0
 13 30  1  0  0  0  0
 14 15  2  0  0  0  0
 14 28  1  0  0  0  0
 15 16  1  0  0  0  0
 15 17  1  0  0  0  0
 16 21  1  0  0  0  0
 17 18  1  0  0  0  0
 18 19  2  0  0  0  0
 18 20  1  0  0  0  0
M  END
>  <Ki_NM>
1900

>  <charge>
0

>  <number_of_rotatable_bonds>
0

>  <lm5_entropy_jk>
16.12636398139741

$$$$
