3RKB
 OpenBabel11252210453D

 39 41  0  0  0  0  0  0  0  0999 V2000
   67.3390  152.8850  -49.6690 C   0  0  0  0  0  0  0  0  0  0  0  0
   66.8250  153.6700  -50.7340 C   0  0  0  0  0  0  0  0  0  0  0  0
   65.7540  154.5510  -50.4290 N   0  0  0  0  0  0  0  0  0  0  0  0
   65.4150  154.4040  -49.1230 C   0  0  0  0  0  0  0  0  0  0  0  0
   66.4320  153.1550  -48.2230 S   0  0  0  0  0  0  0  0  0  0  0  0
   68.3780  151.9180  -49.7830 C   0  0  0  0  0  0  0  0  0  0  0  0
   67.2800  153.5720  -52.0090 N   0  0  0  0  0  0  0  0  0  0  0  0
   64.4590  155.1680  -48.5150 N   0  0  0  0  0  0  0  0  0  0  0  0
   69.0530  151.7940  -50.8060 O   0  0  0  0  0  0  0  0  0  0  0  0
   69.3730  149.0810  -46.7760 C   0  0  0  0  0  0  0  0  0  0  0  0
   70.3570  149.8350  -47.3440 N   0  0  0  0  0  0  0  0  0  0  0  0
   70.0010  150.7750  -48.2530 C   0  0  0  0  0  0  0  0  0  0  0  0
   68.6600  150.9860  -48.6440 C   0  0  0  0  0  0  0  0  0  0  0  0
   67.6570  150.2290  -48.0290 C   0  0  0  0  0  0  0  0  0  0  0  0
   68.0170  149.2680  -47.0790 C   0  0  0  0  0  0  0  0  0  0  0  0
   62.5670  153.5130  -45.5820 C   0  0  0  0  0  0  0  0  0  0  0  0
   63.0770  153.6740  -47.0220 C   0  0  0  0  0  0  0  0  0  0  0  0
   63.9740  154.9270  -47.1200 C   0  0  0  0  0  0  0  0  0  0  0  0
   63.1850  156.1810  -46.6800 C   0  0  0  0  0  0  0  0  0  0  0  0
   62.6940  156.0200  -45.2340 C   0  0  0  0  0  0  0  0  0  0  0  0
   61.8230  154.7630  -45.0860 C   0  0  0  0  0  0  0  0  0  0  0  0
   66.9380  154.2040  -52.7570 H   0  0  0  0  0  0  0  0  0  0  0  0
   68.0980  152.9800  -52.2140 H   0  0  0  0  0  0  0  0  0  0  0  0
   63.7400  155.6130  -49.1310 H   0  0  0  0  0  0  0  0  0  0  0  0
   69.6790  148.3050  -46.0580 H   0  0  0  0  0  0  0  0  0  0  0  0
   70.8130  151.3800  -48.6860 H   0  0  0  0  0  0  0  0  0  0  0  0
   66.6000  150.3580  -48.2770 H   0  0  0  0  0  0  0  0  0  0  0  0
   67.2530  148.6660  -46.5790 H   0  0  0  0  0  0  0  0  0  0  0  0
   63.4350  153.3120  -44.9090 H   0  0  0  0  0  0  0  0  0  0  0  0
   61.8860  152.6380  -45.5310 H   0  0  0  0  0  0  0  0  0  0  0  0
   63.6580  152.7660  -47.2970 H   0  0  0  0  0  0  0  0  0  0  0  0
   62.2190  153.7820  -47.7230 H   0  0  0  0  0  0  0  0  0  0  0  0
   64.8690  154.8010  -46.4640 H   0  0  0  0  0  0  0  0  0  0  0  0
   62.3090  156.3220  -47.3590 H   0  0  0  0  0  0  0  0  0  0  0  0
   63.8280  157.0820  -46.7400 H   0  0  0  0  0  0  0  0  0  0  0  0
   62.0970  156.9190  -44.9520 H   0  0  0  0  0  0  0  0  0  0  0  0
   63.5700  155.9490  -44.5480 H   0  0  0  0  0  0  0  0  0  0  0  0
   61.5500  154.6250  -44.0150 H   0  0  0  0  0  0  0  0  0  0  0  0
   60.8920  154.9070  -45.6780 H   0  0  0  0  0  0  0  0  0  0  0  0
  1  5  1  0  0  0  0
  2  3  1  0  0  0  0
  2  1  2  0  0  0  0
  3  4  2  0  0  0  0
  4  8  1  0  0  0  0
  4  5  1  0  0  0  0
  6  1  1  0  0  0  0
  6 13  1  0  0  0  0
  7  2  1  0  0  0  0
  7 22  1  0  0  0  0
  7 23  1  0  0  0  0
  8 18  1  0  0  0  0
  8 24  1  0  0  0  0
  9  6  2  0  0  0  0
 10 25  1  0  0  0  0
 11 10  2  0  0  0  0
 12 11  1  0  0  0  0
 12 26  1  0  0  0  0
 13 12  2  0  0  0  0
 13 14  1  0  0  0  0
 14 15  2  0  0  0  0
 14 27  1  0  0  0  0
 15 10  1  0  0  0  0
 15 28  1  0  0  0  0
 16 21  1  0  0  0  0
 16 29  1  0  0  0  0
 16 30  1  0  0  0  0
 17 16  1  0  0  0  0
 17 31  1  0  0  0  0
 17 32  1  0  0  0  0
 18 17  1  0  0  0  0
 18 19  1  0  0  0  0
 18 33  1  0  0  0  0
 19 20  1  0  0  0  0
 19 34  1  0  0  0  0
 19 35  1  0  0  0  0
 20 21  1  0  0  0  0
 20 36  1  0  0  0  0
 20 37  1  0  0  0  0
 21 38  1  0  0  0  0
 21 39  1  0  0  0  0
M  END
>  <lm5_entropy_jk>
20.214453483104165

>  <number_of_rotatable_bonds>
4

>  <IC50_NM>
380

>  <charge>
0

$$$$
