3F19
 OpenBabel11252210453D

 25 25  0  0  0  0  0  0  0  0999 V2000
    5.6360   25.5880    4.6200 C   0  0  0  0  0  0  0  0  0  0  0  0
    7.7280   26.8830    2.1360 N   0  0  0  0  0  0  0  0  0  0  0  0
    8.0690   22.6040    0.8060 O   0  0  0  0  0  0  0  0  0  0  0  0
    7.9940   26.6980    3.8270 S   0  0  0  0  0  0  0  0  0  0  0  0
    4.8370   24.5220    5.0390 C   0  0  0  0  0  0  0  0  0  0  0  0
    8.5880   23.7970    1.3540 N   0  0  0  0  0  0  0  0  0  0  0  0
    6.9400   24.7710    0.1090 O   0  0  0  0  0  0  0  0  0  0  0  0
    6.9710   25.3750    4.2470 C   0  0  0  0  0  0  0  0  0  0  0  0
    9.3860   26.3170    4.0870 O   0  0  0  0  0  0  0  0  0  0  0  0
    5.4000   23.2420    5.0450 C   0  0  0  0  0  0  0  0  0  0  0  0
    7.5440   27.9400    4.4440 O   0  0  0  0  0  0  0  0  0  0  0  0
    7.4880   24.0700    4.2160 C   0  0  0  0  0  0  0  0  0  0  0  0
    8.6400   26.2420    1.1690 C   0  0  0  0  0  0  0  0  0  0  0  0
    6.6980   22.9850    4.5980 C   0  0  0  0  0  0  0  0  0  0  0  0
    7.9650   24.9310    0.7430 C   0  0  0  0  0  0  0  0  0  0  0  0
    4.6680   22.2310    5.5080 F   0  0  0  0  0  0  0  0  0  0  0  0
    5.1940   26.5910    4.5970 H   0  0  0  0  0  0  0  0  0  0  0  0
    7.4180   27.8200    1.8100 H   0  0  0  0  0  0  0  0  0  0  0  0
    8.3120   21.8760    1.5780 H   0  0  0  0  0  0  0  0  0  0  0  0
    3.7990   24.6870    5.3400 H   0  0  0  0  0  0  0  0  0  0  0  0
    9.6310   23.7260    1.4100 H   0  0  0  0  0  0  0  0  0  0  0  0
    8.5200   23.8770    3.8890 H   0  0  0  0  0  0  0  0  0  0  0  0
    8.7980   26.8870    0.2560 H   0  0  0  0  0  0  0  0  0  0  0  0
    9.6680   26.0600    1.6040 H   0  0  0  0  0  0  0  0  0  0  0  0
    7.0970   21.9700    4.5160 H   0  0  0  0  0  0  0  0  0  0  0  0
  1  8  2  0  0  0  0
  1  5  1  0  0  0  0
  1 17  1  0  0  0  0
  2 13  1  0  0  0  0
  2  4  1  0  0  0  0
  2 18  1  0  0  0  0
  3  6  1  0  0  0  0
  3 19  1  0  0  0  0
  4  9  2  0  0  0  0
  4  8  1  0  0  0  0
  4 11  2  0  0  0  0
  5 10  2  0  0  0  0
  5 20  1  0  0  0  0
  6 15  1  0  0  0  0
  6 21  1  0  0  0  0
  7 15  2  0  0  0  0
  8 12  1  0  0  0  0
 10 14  1  0  0  0  0
 10 16  1  0  0  0  0
 12 14  2  0  0  0  0
 12 22  1  0  0  0  0
 13 15  1  0  0  0  0
 13 23  1  0  0  0  0
 13 24  1  0  0  0  0
 14 25  1  0  0  0  0
M  END
>  <lm5_entropy_jk>
20.21647283461167

>  <number_of_rotatable_bonds>
5

>  <deltaG_kcalmol>
-9.81

>  <charge>
0

$$$$
