1zoh
 OpenBabel11252210453D

 24 26  0  0  1  0  0  0  0  0999 V2000
   22.6380    8.3950   17.7930 C   0  0  0  0  0  0  0  0  0  0  0  0
   21.6760    9.0060   18.6450 C   0  0  0  0  0  0  0  0  0  0  0  0
   21.4260    8.5000   19.9140 C   0  0  0  0  0  0  0  0  0  0  0  0
   23.3430    7.2640   18.1870 C   0  0  0  0  0  0  0  0  0  0  0  0
   23.6190    5.5480   20.0360 N   0  0  0  0  0  0  0  0  0  0  0  0
   23.0700    6.7000   19.4410 C   0  0  0  0  0  0  0  0  0  0  0  0
   22.1170    7.3520   20.3150 C   0  0  0  0  0  0  0  0  0  0  0  0
   22.0960    6.5710   21.4590 N   0  0  0  0  0  0  0  0  0  0  0  0
   23.0240    5.4870   21.2500 C   0  0  0  0  0  0  0  0  0  0  0  0
   23.1540    4.7100   22.4300 N   0  0  0  0  0  0  0  0  0  0  0  0
   23.1060    3.2350   22.2530 C   0  0  0  0  0  0  0  0  0  0  0  0
   21.4860    6.5450   22.8030 C   0  0  0  0  0  0  0  0  0  0  0  0
   22.1050    5.2400   23.4000 C   0  0  0  0  0  0  0  0  0  0  0  0
   24.6880    6.4110   17.1780 Br  0  0  0  0  0  0  0  0  0  0  0  0
   22.9940    9.1440   16.0860 Br  0  0  0  0  0  0  0  0  0  0  0  0
   20.7570   10.5630   18.0570 Br  0  0  0  0  0  0  0  0  0  0  0  0
   20.2220    9.1980   21.1980 Br  0  0  0  0  0  0  0  0  0  0  0  0
   22.6340    5.4520   24.3640 H   0  0  0  0  0  0  0  0  0  0  0  0
   20.3670    6.4760   22.7390 H   0  0  0  0  0  0  0  0  0  0  0  0
   21.7610    7.4460   23.4110 H   0  0  0  0  0  0  0  0  0  0  0  0
   21.2980    4.4890   23.6010 H   0  0  0  0  0  0  0  0  0  0  0  0
   23.9160    2.9180   21.5470 H   0  0  0  0  0  0  0  0  0  0  0  0
   22.1200    2.8560   21.8780 H   0  0  0  0  0  0  0  0  0  0  0  0
   23.3050    2.7700   23.2580 H   0  0  0  0  0  0  0  0  0  0  0  0
  1  2  2  0  0  0  0
  1  4  1  0  0  0  0
  1 15  1  0  0  0  0
  2  3  1  0  0  0  0
  2 16  1  0  0  0  0
  3  7  2  0  0  0  0
  3 17  1  0  0  0  0
  4  6  2  0  0  0  0
  4 14  1  0  0  0  0
  5  6  1  0  0  0  0
  5  9  2  0  0  0  0
  6  7  1  0  0  0  0
  7  8  1  0  0  0  0
  8  9  1  0  0  0  0
  8 12  1  0  0  0  0
  9 10  1  0  0  0  0
 10 11  1  0  0  0  0
 10 13  1  0  0  0  0
 11 22  1  0  0  0  0
 11 23  1  0  0  0  0
 11 24  1  0  0  0  0
 12 13  1  0  0  0  0
 12 19  1  0  0  0  0
 12 20  1  0  0  0  0
 13 18  1  0  0  0  0
 13 21  1  0  0  0  0
M  END
>  <charge>
0

>  <Ki_NM>
100

>  <number_of_rotatable_bonds>
0

>  <lm5_entropy_jk>
16.12636398139741

$$$$
