untitled
 OpenBabel11252210453D

 19 20  0  0  1  0  0  0  0  0999 V2000
   21.6140    9.0330   18.7430 C   0  0  0  0  0  0  0  0  0  0  0  0
   22.5710    8.4120   17.8810 C   0  0  0  0  0  0  0  0  0  0  0  0
   23.2520    7.2720   18.2670 C   0  0  0  0  0  0  0  0  0  0  0  0
   21.3650    8.5340   20.0110 C   0  0  0  0  0  0  0  0  0  0  0  0
   21.9440    6.6480   21.6120 N   0  0  0  0  0  0  0  0  0  0  0  0
   22.0390    7.3660   20.4170 C   0  0  0  0  0  0  0  0  0  0  0  0
   22.9550    6.7170   19.5220 C   0  0  0  0  0  0  0  0  0  0  0  0
   23.4120    5.5790   20.1880 N   0  0  0  0  0  0  0  0  0  0  0  0
   22.7540    5.5700   21.4570 C   0  0  0  0  0  0  0  0  0  0  0  0
   23.3000    2.8500   21.7480 C   0  0  0  0  0  0  0  0  0  0  0  0
   20.1840    9.2450   21.2950 Br  0  0  0  0  0  0  0  0  0  0  0  0
   20.7140   10.5910   18.1340 Br  0  0  0  0  0  0  0  0  0  0  0  0
   22.9480    9.1660   16.1820 Br  0  0  0  0  0  0  0  0  0  0  0  0
   24.5980    6.3820   17.2840 Br  0  0  0  0  0  0  0  0  0  0  0  0
   23.0230    4.3420   22.7110 S   0  0  0  0  0  0  0  0  0  0  0  0
   24.0260    4.8610   19.8050 H   0  0  0  0  0  0  0  0  0  0  0  0
   22.5030    2.6710   20.9880 H   0  0  0  0  0  0  0  0  0  0  0  0
   23.2750    1.9940   22.4740 H   0  0  0  0  0  0  0  0  0  0  0  0
   24.2940    2.8440   21.2440 H   0  0  0  0  0  0  0  0  0  0  0  0
  1  2  2  0  0  0  0
  1  4  1  0  0  0  0
  1 12  1  0  0  0  0
  2  3  1  0  0  0  0
  2 13  1  0  0  0  0
  3  7  2  0  0  0  0
  3 14  1  0  0  0  0
  4  6  2  0  0  0  0
  4 11  1  0  0  0  0
  5  6  1  0  0  0  0
  5  9  2  0  0  0  0
  6  7  1  0  0  0  0
  7  8  1  0  0  0  0
  8  9  1  0  0  0  0
  8 16  1  0  0  0  0
  9 15  1  0  0  0  0
 10 15  1  0  0  0  0
 10 17  1  0  0  0  0
 10 18  1  0  0  0  0
 10 19  1  0  0  0  0
M  END
>  <charge>
0

>  <Ki_NM>
70

>  <number_of_rotatable_bonds>
1

>  <lm5_entropy_jk>
23.154104138289753

$$$$
