3F1A
 OpenBabel11252210453D

 25 25  0  0  0  0  0  0  0  0999 V2000
    7.3950   24.1530    4.2000 C   0  0  0  0  0  0  0  0  0  0  0  0
    7.8270   26.9590    2.1020 N   0  0  0  0  0  0  0  0  0  0  0  0
    9.4040   26.3160    4.0920 O   0  0  0  0  0  0  0  0  0  0  0  0
    8.0350   26.7480    3.7970 S   0  0  0  0  0  0  0  0  0  0  0  0
    6.5120   23.1100    4.4930 C   0  0  0  0  0  0  0  0  0  0  0  0
    8.5690   23.8040    1.3930 N   0  0  0  0  0  0  0  0  0  0  0  0
    7.6200   28.0050    4.4140 O   0  0  0  0  0  0  0  0  0  0  0  0
    6.9320   25.4760    4.1600 C   0  0  0  0  0  0  0  0  0  0  0  0
    6.9390   24.7910    0.1430 O   0  0  0  0  0  0  0  0  0  0  0  0
    5.1720   23.3860    4.7820 C   0  0  0  0  0  0  0  0  0  0  0  0
    8.0180   22.6190    0.8620 O   0  0  0  0  0  0  0  0  0  0  0  0
    4.7030   24.7020    4.7220 C   0  0  0  0  0  0  0  0  0  0  0  0
    5.5770   25.7430    4.3960 C   0  0  0  0  0  0  0  0  0  0  0  0
    7.9750   24.9440    0.7670 C   0  0  0  0  0  0  0  0  0  0  0  0
    8.6960   26.2430    1.1500 C   0  0  0  0  0  0  0  0  0  0  0  0
    8.4450   23.9130    3.9890 H   0  0  0  0  0  0  0  0  0  0  0  0
    7.5810   27.9090    1.7610 H   0  0  0  0  0  0  0  0  0  0  0  0
    6.8720   22.0790    4.4640 H   0  0  0  0  0  0  0  0  0  0  0  0
    9.6080   23.7050    1.4540 H   0  0  0  0  0  0  0  0  0  0  0  0
    4.4880   22.5750    5.0400 H   0  0  0  0  0  0  0  0  0  0  0  0
    8.2460   21.8910    1.6390 H   0  0  0  0  0  0  0  0  0  0  0  0
    3.6480   24.9090    4.9160 H   0  0  0  0  0  0  0  0  0  0  0  0
    5.1800   26.7600    4.3230 H   0  0  0  0  0  0  0  0  0  0  0  0
    8.8670   26.8510    0.2130 H   0  0  0  0  0  0  0  0  0  0  0  0
    9.7200   26.0340    1.5810 H   0  0  0  0  0  0  0  0  0  0  0  0
  1  8  2  0  0  0  0
  1  5  1  0  0  0  0
  1 16  1  0  0  0  0
  2 15  1  0  0  0  0
  2  4  1  0  0  0  0
  2 17  1  0  0  0  0
  3  4  2  0  0  0  0
  4  8  1  0  0  0  0
  4  7  2  0  0  0  0
  5 10  2  0  0  0  0
  5 18  1  0  0  0  0
  6 11  1  0  0  0  0
  6 14  1  0  0  0  0
  6 19  1  0  0  0  0
  8 13  1  0  0  0  0
  9 14  2  0  0  0  0
 10 12  1  0  0  0  0
 10 20  1  0  0  0  0
 11 21  1  0  0  0  0
 12 13  2  0  0  0  0
 12 22  1  0  0  0  0
 13 23  1  0  0  0  0
 14 15  1  0  0  0  0
 15 24  1  0  0  0  0
 15 25  1  0  0  0  0
M  END
>  <lm5_entropy_jk>
20.21647283461167

>  <number_of_rotatable_bonds>
5

>  <deltaG_kcalmol>
-9.85

>  <charge>
0

$$$$
