JF48_4xzh.pdb
 OpenBabel11252210453D

 32 33  0  0  0  0  0  0  0  0999 V2000
   14.9400   -4.1230   10.2980 Cl  0  0  0  0  0  0  0  0  0  0  0  0
   17.5390   -6.2630   13.3290 C   0  0  0  0  0  0  0  0  0  0  0  0
   16.8930   -7.7410   17.6870 N   0  0  0  0  0  0  0  0  0  0  0  0
   18.4400   -6.9780   14.3140 C   0  0  0  0  0  0  0  0  0  0  0  0
   17.9910   -5.8750   16.8320 O   0  0  0  0  0  0  0  0  0  0  0  0
   17.7230   -7.6870   15.4090 N   0  0  0  0  0  0  0  0  0  0  0  0
   17.4220   -9.0970   15.2260 C   0  0  0  0  0  0  0  0  0  0  0  0
   18.1000   -5.2740   12.5130 C   0  0  0  0  0  0  0  0  0  0  0  0
   17.3260   -4.6300   11.5260 C   0  0  0  0  0  0  0  0  0  0  0  0
   15.0570   -5.7540   17.4350 O   0  5  0  0  0  0  0  0  0  0  0  0
   15.9630   -4.9370   11.4090 C   0  0  0  0  0  0  0  0  0  0  0  0
   15.4020   -5.9220   18.6120 C   0  0  0  0  0  0  0  0  0  0  0  0
   16.5130   -7.0090   18.9220 C   0  0  0  0  0  0  0  0  0  0  0  0
   14.9300   -5.3660   19.6200 O   0  0  0  0  0  0  0  0  0  0  0  0
   16.1800   -6.5890   13.1630 C   0  0  0  0  0  0  0  0  0  0  0  0
   18.0000   -3.6660   10.6410 N   0  3  0  0  0  0  0  0  0  0  0  0
   17.3410   -2.8850    9.9740 O   0  5  0  0  0  0  0  0  0  0  0  0
   19.2240   -3.7280   10.5830 O   0  0  0  0  0  0  0  0  0  0  0  0
   15.3960   -5.9260   12.2180 C   0  0  0  0  0  0  0  0  0  0  0  0
   17.5470   -6.9880   16.6460 C   0  0  0  0  0  0  0  0  0  0  0  0
   17.7450   -9.6160   14.1710 O   0  0  0  0  0  0  0  0  0  0  0  0
   16.4950   -9.0520   17.5010 C   0  0  0  0  0  0  0  0  0  0  0  0
   16.7700   -9.7220   16.3450 C   0  0  0  0  0  0  0  0  0  0  0  0
   16.5090  -10.7790   16.2480 H   0  0  0  0  0  0  0  0  0  0  0  0
   19.1660   -6.2460   14.7690 H   0  0  0  0  0  0  0  0  0  0  0  0
   19.1500   -4.9860   12.6280 H   0  0  0  0  0  0  0  0  0  0  0  0
   17.4350   -6.5340   19.3390 H   0  0  0  0  0  0  0  0  0  0  0  0
   15.7250   -7.3680   13.7820 H   0  0  0  0  0  0  0  0  0  0  0  0
   14.3320   -6.1590   12.1050 H   0  0  0  0  0  0  0  0  0  0  0  0
   15.9800   -9.5660   18.3300 H   0  0  0  0  0  0  0  0  0  0  0  0
   16.1370   -7.7460   19.6730 H   0  0  0  0  0  0  0  0  0  0  0  0
   19.0280   -7.7670   13.7560 H   0  0  0  0  0  0  0  0  0  0  0  0
  1 11  1  0  0  0  0
  2  4  1  0  0  0  0
  2  8  2  0  0  0  0
  2 15  1  0  0  0  0
  3 13  1  0  0  0  0
  3 20  1  0  0  0  0
  3 22  1  0  0  0  0
  4  6  1  0  0  0  0
  4 25  1  0  0  0  0
  4 32  1  0  0  0  0
  5 20  2  0  0  0  0
  6  7  1  0  0  0  0
  6 20  1  0  0  0  0
  7 21  2  0  0  0  0
  7 23  1  0  0  0  0
  8  9  1  0  0  0  0
  8 26  1  0  0  0  0
  9 11  2  0  0  0  0
  9 16  1  0  0  0  0
 10 12  1  0  0  0  0
 11 19  1  0  0  0  0
 12 13  1  0  0  0  0
 12 14  2  0  0  0  0
 13 27  1  0  0  0  0
 13 31  1  0  0  0  0
 15 19  2  0  0  0  0
 15 28  1  0  0  0  0
 16 17  1  0  0  0  0
 16 18  2  0  0  0  0
 19 29  1  0  0  0  0
 22 23  2  0  0  0  0
 22 30  1  0  0  0  0
 23 24  1  0  0  0  0
M  CHG  3  10  -1  16   1  17  -1
M  END
>  <deltaG_kcalmol>
-9.66

>  <charge>
-1

>  <number_of_rotatable_bonds>
5

>  <lm5_entropy_jk>
25.077845360290652

$$$$
