3QU0
 OpenBabel11252210453D

 38 40  0  0  0  0  0  0  0  0999 V2000
   65.9470  154.2750  -50.5780 N   0  0  0  0  0  0  0  0  0  0  0  0
   64.5310  154.7100  -48.8120 N   0  0  0  0  0  0  0  0  0  0  0  0
   70.6430  149.5860  -47.7300 N   0  0  0  0  0  0  0  0  0  0  0  0
   67.3930  153.3920  -52.1390 N   0  0  0  0  0  0  0  0  0  0  0  0
   61.9420  153.4800  -42.9690 N   0  0  0  0  0  0  0  0  0  0  0  0
   67.5460  152.7400  -49.8600 C   0  0  0  0  0  0  0  0  0  0  0  0
   67.0190  153.4770  -50.8710 C   0  0  0  0  0  0  0  0  0  0  0  0
   65.6490  154.1200  -49.3050 C   0  0  0  0  0  0  0  0  0  0  0  0
   63.8230  154.5930  -47.6430 C   0  0  0  0  0  0  0  0  0  0  0  0
   68.6330  151.7770  -50.0440 C   0  0  0  0  0  0  0  0  0  0  0  0
   68.9440  150.8290  -48.9300 C   0  0  0  0  0  0  0  0  0  0  0  0
   67.9320  150.1750  -48.2010 C   0  0  0  0  0  0  0  0  0  0  0  0
   68.3080  149.2400  -47.2270 C   0  0  0  0  0  0  0  0  0  0  0  0
   69.6700  148.9710  -47.0210 C   0  0  0  0  0  0  0  0  0  0  0  0
   70.2840  150.4880  -48.6730 C   0  0  0  0  0  0  0  0  0  0  0  0
   63.8000  153.4060  -46.9130 C   0  0  0  0  0  0  0  0  0  0  0  0
   63.0140  153.2910  -45.7660 C   0  0  0  0  0  0  0  0  0  0  0  0
   62.2460  154.3940  -45.3640 C   0  0  0  0  0  0  0  0  0  0  0  0
   62.2550  155.5980  -46.0770 C   0  0  0  0  0  0  0  0  0  0  0  0
   63.0470  155.6690  -47.2210 C   0  0  0  0  0  0  0  0  0  0  0  0
   69.2570  151.7170  -51.0880 O   0  0  0  0  0  0  0  0  0  0  0  0
   60.1270  153.2090  -44.3390 O   0  0  0  0  0  0  0  0  0  0  0  0
   60.8080  155.4400  -43.3360 O   0  0  0  0  0  0  0  0  0  0  0  0
   66.7520  153.1290  -48.3650 S   0  0  0  0  0  0  0  0  0  0  0  0
   61.1280  154.2140  -44.0510 S   0  0  0  0  0  0  0  0  0  0  0  0
   64.0660  155.3080  -49.4860 H   0  0  0  0  0  0  0  0  0  0  0  0
   67.1450  154.1330  -52.7830 H   0  0  0  0  0  0  0  0  0  0  0  0
   68.2480  152.8670  -52.2740 H   0  0  0  0  0  0  0  0  0  0  0  0
   61.3200  152.7100  -43.2360 H   0  0  0  0  0  0  0  0  0  0  0  0
   61.3800  154.1140  -42.4050 H   0  0  0  0  0  0  0  0  0  0  0  0
   66.8780  150.3680  -48.4020 H   0  0  0  0  0  0  0  0  0  0  0  0
   67.5530  148.7150  -46.6410 H   0  0  0  0  0  0  0  0  0  0  0  0
   69.9860  148.2280  -46.2810 H   0  0  0  0  0  0  0  0  0  0  0  0
   71.0930  150.9430  -49.2550 H   0  0  0  0  0  0  0  0  0  0  0  0
   64.3540  152.5410  -47.2540 H   0  0  0  0  0  0  0  0  0  0  0  0
   63.0090  152.3440  -45.2210 H   0  0  0  0  0  0  0  0  0  0  0  0
   61.6380  156.4590  -45.7920 H   0  0  0  0  0  0  0  0  0  0  0  0
   63.0340  156.5760  -47.8110 H   0  0  0  0  0  0  0  0  0  0  0  0
  1  8  2  0  0  0  0
  2  9  1  0  0  0  0
  2 26  1  0  0  0  0
  3 14  2  0  0  0  0
  4  7  1  0  0  0  0
  4 27  1  0  0  0  0
  4 28  1  0  0  0  0
  5 29  1  0  0  0  0
  5 30  1  0  0  0  0
  6 24  1  0  0  0  0
  7  1  1  0  0  0  0
  7  6  2  0  0  0  0
  8  2  1  0  0  0  0
  8 24  1  0  0  0  0
  9 20  2  0  0  0  0
  9 16  1  0  0  0  0
 10  6  1  0  0  0  0
 10 11  1  0  0  0  0
 11 15  2  0  0  0  0
 11 12  1  0  0  0  0
 12 13  2  0  0  0  0
 12 31  1  0  0  0  0
 13 14  1  0  0  0  0
 13 32  1  0  0  0  0
 14 33  1  0  0  0  0
 15  3  1  0  0  0  0
 15 34  1  0  0  0  0
 16 17  2  0  0  0  0
 16 35  1  0  0  0  0
 17 18  1  0  0  0  0
 17 36  1  0  0  0  0
 18 25  1  0  0  0  0
 19 18  2  0  0  0  0
 19 37  1  0  0  0  0
 20 19  1  0  0  0  0
 20 38  1  0  0  0  0
 21 10  2  0  0  0  0
 22 25  2  0  0  0  0
 25 23  2  0  0  0  0
 25  5  1  0  0  0  0
M  END
>  <lm5_entropy_jk>
22.397995528352578

>  <number_of_rotatable_bonds>
5

>  <IC50_NM>
20

>  <charge>
0

$$$$
