model36
 OpenBabel11252210453D

 79 80  0  0  1  0  0  0  0  0999 V2000
   11.1060   17.8690    7.5230 C   0  0  0  0  0  0  0  0  0  0  0  0
    8.2380   18.4630    8.8840 N   0  0  0  0  0  0  0  0  0  0  0  0
    9.7650   18.3310    6.9440 C   0  0  0  0  0  0  0  0  0  0  0  0
    4.7510   17.4830    9.6520 N   0  0  0  0  0  0  0  0  0  0  0  0
    5.5750   19.2940    8.5170 O   0  0  0  0  0  0  0  0  0  0  0  0
    8.6200   17.7310    7.7450 C   0  0  0  0  0  0  0  0  0  0  0  0
   11.4420   16.0540    5.8630 N   0  0  0  0  0  0  0  0  0  0  0  0
    8.0820   16.6660    7.4870 O   0  0  0  0  0  0  0  0  0  0  0  0
    7.1850   17.9700    9.7940 C   0  0  1  0  0  0  0  0  0  0  0  0
   10.2740   14.0660    5.9220 O   0  0  0  0  0  0  0  0  0  0  0  0
    7.4170   18.5000   11.2400 C   0  0  0  0  0  0  0  0  0  0  0  0
    6.7100   17.6100   12.2700 C   0  0  0  0  0  0  0  0  0  0  0  0
    7.0320   19.9720   11.3930 C   0  0  0  0  0  0  0  0  0  0  0  0
    5.7900   18.3270    9.2260 C   0  0  0  0  0  0  0  0  0  0  0  0
    3.4660   17.3930    8.9110 C   0  0  0  0  0  0  0  0  0  0  0  0
    3.4250   16.1820    7.9560 C   0  0  0  0  0  0  0  0  0  0  0  0
    4.3950   16.2780    6.7690 C   0  0  0  0  0  0  0  0  0  0  0  0
    3.8900   17.1960    5.6430 C   0  0  0  0  0  0  0  0  0  0  0  0
    5.0100   17.7700    4.7570 C   0  0  0  0  0  0  0  0  0  0  0  0
    5.9780   16.7050    4.2180 C   0  0  0  0  0  0  0  0  0  0  0  0
    6.7870   17.2150    3.0130 C   0  0  0  0  0  0  0  0  0  0  0  0
    7.7840   16.1700    2.4820 C   0  0  0  0  0  0  0  0  0  0  0  0
    9.0690   16.0920    3.3180 C   0  0  0  0  0  0  0  0  0  0  0  0
    9.8890   14.8350    2.9870 C   0  0  0  0  0  0  0  0  0  0  0  0
   11.1970   14.7640    3.7900 C   0  0  0  0  0  0  0  0  0  0  0  0
   11.4030   16.3570    7.3100 C   0  0  1  0  0  0  0  0  0  0  0  0
   10.9190   14.8800    5.2840 C   0  0  0  0  0  0  0  0  0  0  0  0
   12.7450   16.0010    8.0170 C   0  0  0  0  0  0  0  0  0  0  0  0
   13.1970   14.5940    7.7510 C   0  0  0  0  0  0  0  0  0  0  0  0
   12.7470   13.5320    8.5520 C   0  0  0  0  0  0  0  0  0  0  0  0
   13.1510   12.2220    8.2840 C   0  0  0  0  0  0  0  0  0  0  0  0
   14.0320   11.9570    7.2300 C   0  0  0  0  0  0  0  0  0  0  0  0
   14.5030   13.0120    6.4420 C   0  0  0  0  0  0  0  0  0  0  0  0
   14.0850   14.3210    6.6960 C   0  0  0  0  0  0  0  0  0  0  0  0
   14.4530   15.1360    6.0700 H   0  0  0  0  0  0  0  0  0  0  0  0
    8.5870   19.4200    9.0410 H   0  0  0  0  0  0  0  0  0  0  0  0
    9.6810   18.0000    5.8770 H   0  0  0  0  0  0  0  0  0  0  0  0
    5.0150   16.5890   10.1100 H   0  0  0  0  0  0  0  0  0  0  0  0
   12.1590   16.5960    5.3490 H   0  0  0  0  0  0  0  0  0  0  0  0
    7.2700   16.8500    9.8450 H   0  0  0  0  0  0  0  0  0  0  0  0
    8.5130   18.3860   11.4350 H   0  0  0  0  0  0  0  0  0  0  0  0
   11.1330   18.0770    8.6210 H   0  0  0  0  0  0  0  0  0  0  0  0
   11.9320   18.4740    7.0780 H   0  0  0  0  0  0  0  0  0  0  0  0
    6.9640   17.9550   13.2980 H   0  0  0  0  0  0  0  0  0  0  0  0
    7.5870   20.5910   10.6570 H   0  0  0  0  0  0  0  0  0  0  0  0
    3.2920   18.3440    8.3450 H   0  0  0  0  0  0  0  0  0  0  0  0
    2.3770   16.0790    7.5800 H   0  0  0  0  0  0  0  0  0  0  0  0
    4.5360   15.2530    6.3570 H   0  0  0  0  0  0  0  0  0  0  0  0
    3.3360   18.0590    6.0830 H   0  0  0  0  0  0  0  0  0  0  0  0
    5.5900   18.5180    5.3430 H   0  0  0  0  0  0  0  0  0  0  0  0
    5.4050   15.8060    3.9030 H   0  0  0  0  0  0  0  0  0  0  0  0
    7.3360   18.1420    3.2910 H   0  0  0  0  0  0  0  0  0  0  0  0
    8.0530   16.4390    1.4340 H   0  0  0  0  0  0  0  0  0  0  0  0
    8.8000   16.0870    4.4000 H   0  0  0  0  0  0  0  0  0  0  0  0
   10.1540   14.8470    1.9010 H   0  0  0  0  0  0  0  0  0  0  0  0
   11.8780   15.5770    3.4370 H   0  0  0  0  0  0  0  0  0  0  0  0
   10.5820   15.7600    7.7760 H   0  0  0  0  0  0  0  0  0  0  0  0
   12.6030   16.1650    9.1160 H   0  0  0  0  0  0  0  0  0  0  0  0
   12.0940   13.7360    9.4010 H   0  0  0  0  0  0  0  0  0  0  0  0
   12.7840   11.4040    8.9070 H   0  0  0  0  0  0  0  0  0  0  0  0
   14.3600   10.9350    7.0280 H   0  0  0  0  0  0  0  0  0  0  0  0
   15.2030   12.8170    5.6240 H   0  0  0  0  0  0  0  0  0  0  0  0
   13.5270   16.7280    7.6870 H   0  0  0  0  0  0  0  0  0  0  0  0
    9.7330   19.4450    6.9570 H   0  0  0  0  0  0  0  0  0  0  0  0
    7.0450   16.5560   12.1560 H   0  0  0  0  0  0  0  0  0  0  0  0
    7.2670   20.3260   12.4210 H   0  0  0  0  0  0  0  0  0  0  0  0
    2.6590   17.2740    9.6850 H   0  0  0  0  0  0  0  0  0  0  0  0
    3.6670   15.2590    8.5390 H   0  0  0  0  0  0  0  0  0  0  0  0
    5.3880   16.6380    7.1300 H   0  0  0  0  0  0  0  0  0  0  0  0
    3.1770   16.6230    5.0040 H   0  0  0  0  0  0  0  0  0  0  0  0
    4.5280   18.2970    3.8980 H   0  0  0  0  0  0  0  0  0  0  0  0
    6.6840   16.4190    5.0310 H   0  0  0  0  0  0  0  0  0  0  0  0
    6.0810   17.4570    2.1870 H   0  0  0  0  0  0  0  0  0  0  0  0
    7.2890   15.1740    2.4690 H   0  0  0  0  0  0  0  0  0  0  0  0
    9.6940   16.9940    3.1160 H   0  0  0  0  0  0  0  0  0  0  0  0
    9.2880   13.9220    3.1950 H   0  0  0  0  0  0  0  0  0  0  0  0
   11.6980   13.7870    3.5860 H   0  0  0  0  0  0  0  0  0  0  0  0
    5.9410   20.1130   11.2300 H   0  0  0  0  0  0  0  0  0  0  0  0
    5.6040   17.6510   12.1600 H   0  0  0  0  0  0  0  0  0  0  0  0
  1 42  1  0  0  0  0
  2 36  1  0  0  0  0
  2  9  1  0  0  0  0
  3  1  1  0  0  0  0
  3  6  1  0  0  0  0
  4 38  1  0  0  0  0
  5 14  2  0  0  0  0
  6  2  1  0  0  0  0
  7 26  1  0  0  0  0
  8  6  2  0  0  0  0
  9 40  1  1  0  0  0
  9 11  1  0  0  0  0
 11 13  1  0  0  0  0
 11 41  1  0  0  0  0
 11 12  1  0  0  0  0
 12 44  1  0  0  0  0
 13 66  1  0  0  0  0
 14  4  1  0  0  0  0
 14  9  1  0  0  0  0
 15  4  1  0  0  0  0
 15 67  1  0  0  0  0
 16 68  1  0  0  0  0
 16 15  1  0  0  0  0
 17 69  1  0  0  0  0
 17 16  1  0  0  0  0
 18 49  1  0  0  0  0
 18 17  1  0  0  0  0
 19 50  1  0  0  0  0
 19 18  1  0  0  0  0
 20 19  1  0  0  0  0
 20 72  1  0  0  0  0
 21 52  1  0  0  0  0
 21 20  1  0  0  0  0
 22 21  1  0  0  0  0
 22 23  1  0  0  0  0
 23 54  1  0  0  0  0
 24 23  1  0  0  0  0
 24 76  1  0  0  0  0
 24 25  1  0  0  0  0
 25 27  1  0  0  0  0
 26  1  1  0  0  0  0
 26 57  1  1  0  0  0
 26 28  1  0  0  0  0
 27  7  1  0  0  0  0
 27 10  2  0  0  0  0
 28 58  1  0  0  0  0
 29 28  1  0  0  0  0
 29 30  2  0  0  0  0
 30 59  1  0  0  0  0
 31 30  1  0  0  0  0
 31 60  1  0  0  0  0
 32 31  2  0  0  0  0
 33 34  2  0  0  0  0
 33 32  1  0  0  0  0
 34 29  1  0  0  0  0
 35 34  1  0  0  0  0
 37  3  1  0  0  0  0
 39  7  1  0  0  0  0
 43  1  1  0  0  0  0
 45 13  1  0  0  0  0
 46 15  1  0  0  0  0
 47 16  1  0  0  0  0
 48 17  1  0  0  0  0
 51 20  1  0  0  0  0
 53 22  1  0  0  0  0
 55 24  1  0  0  0  0
 56 25  1  0  0  0  0
 61 32  1  0  0  0  0
 62 33  1  0  0  0  0
 63 28  1  0  0  0  0
 64  3  1  0  0  0  0
 65 12  1  0  0  0  0
 70 18  1  0  0  0  0
 71 19  1  0  0  0  0
 73 21  1  0  0  0  0
 74 22  1  0  0  0  0
 75 23  1  0  0  0  0
 77 25  1  0  0  0  0
 78 13  1  0  0  0  0
 79 12  1  0  0  0  0
M  END
>  <IC50_NM>
2000

>  <number_of_rotatable_bonds>
3

>  <charge>
0

>  <lm5_entropy_jk>
30.51387600249522

$$$$
