3rtt_rot.pdb
 OpenBabel11252210453D

 38 39  0  0  1  0  0  0  0  0999 V2000
    8.5900   26.2320    1.4410 C   0  0  2  0  0  0  0  0  0  0  0  0
    8.4190   23.7920    1.5950 N   0  0  0  0  0  0  0  0  0  0  0  0
    9.3350   26.5230    4.2260 O   0  0  0  0  0  0  0  0  0  0  0  0
    8.0690   27.2200    3.9820 S   0  0  0  0  0  0  0  0  0  0  0  0
    3.0860   24.0430    5.2640 C   0  0  0  0  0  0  0  0  0  0  0  0
    7.6300   26.9450    2.3240 N   0  0  0  0  0  0  0  0  0  0  0  0
    7.9730   22.6260    0.9340 O   0  0  0  0  0  0  0  0  0  0  0  0
    8.9430   27.1590    0.2560 C   0  0  0  0  0  0  0  0  0  0  0  0
    8.0930   28.6580    4.2230 O   0  0  0  0  0  0  0  0  0  0  0  0
    7.0820   28.1220    1.5700 C   0  0  0  0  0  0  0  0  0  0  0  0
    6.8910   24.8050    0.2490 O   0  0  0  0  0  0  0  0  0  0  0  0
    3.1780   22.9920    6.1810 C   0  0  0  0  0  0  0  0  0  0  0  0
    8.0300   28.3920    0.3850 C   0  0  0  0  0  0  0  0  0  0  0  0
    6.7740   26.4800    4.8900 C   0  0  0  0  0  0  0  0  0  0  0  0
    6.7670   24.9500    4.7680 C   0  0  0  0  0  0  0  0  0  0  0  0
    5.5030   24.3160    5.3020 C   0  0  0  0  0  0  0  0  0  0  0  0
    4.2400   24.6910    4.8160 C   0  0  0  0  0  0  0  0  0  0  0  0
    5.5840   23.2830    6.2500 C   0  0  0  0  0  0  0  0  0  0  0  0
    4.4310   22.6120    6.6680 C   0  0  0  0  0  0  0  0  0  0  0  0
    7.8710   24.9500    0.9600 C   0  0  0  0  0  0  0  0  0  0  0  0
    9.5310   25.9560    2.0020 H   0  0  0  0  0  0  0  0  0  0  0  0
    9.4490   23.7060    1.7570 H   0  0  0  0  0  0  0  0  0  0  0  0
    2.1080   24.3590    4.8900 H   0  0  0  0  0  0  0  0  0  0  0  0
    8.2330   21.8550    1.6590 H   0  0  0  0  0  0  0  0  0  0  0  0
   10.0160   27.4620    0.3130 H   0  0  0  0  0  0  0  0  0  0  0  0
    8.8060   26.6650   -0.7320 H   0  0  0  0  0  0  0  0  0  0  0  0
    6.0570   27.8390    1.2130 H   0  0  0  0  0  0  0  0  0  0  0  0
    6.9830   29.0300    2.2190 H   0  0  0  0  0  0  0  0  0  0  0  0
    2.2750   22.4720    6.5100 H   0  0  0  0  0  0  0  0  0  0  0  0
    7.4540   28.5690   -0.5520 H   0  0  0  0  0  0  0  0  0  0  0  0
    8.6450   29.3060    0.5740 H   0  0  0  0  0  0  0  0  0  0  0  0
    6.8520   26.7510    5.9780 H   0  0  0  0  0  0  0  0  0  0  0  0
    5.7820   26.8730    4.5240 H   0  0  0  0  0  0  0  0  0  0  0  0
    6.8530   24.6420    3.6900 H   0  0  0  0  0  0  0  0  0  0  0  0
    7.6580   24.5300    5.3030 H   0  0  0  0  0  0  0  0  0  0  0  0
    4.1450   25.4870    4.0770 H   0  0  0  0  0  0  0  0  0  0  0  0
    6.5480   22.9990    6.6710 H   0  0  0  0  0  0  0  0  0  0  0  0
    4.5110   21.8020    7.3940 H   0  0  0  0  0  0  0  0  0  0  0  0
  1  6  1  0  0  0  0
  1  8  1  0  0  0  0
  1 20  1  0  0  0  0
  1 21  1  1  0  0  0
  2  7  1  0  0  0  0
  2 20  1  0  0  0  0
  2 22  1  0  0  0  0
  3  4  2  0  0  0  0
  4  6  1  0  0  0  0
  4  9  2  0  0  0  0
  4 14  1  0  0  0  0
  5 12  2  0  0  0  0
  5 17  1  0  0  0  0
  5 23  1  0  0  0  0
  6 10  1  0  0  0  0
  7 24  1  0  0  0  0
  8 13  1  0  0  0  0
  8 25  1  0  0  0  0
  8 26  1  0  0  0  0
 10 13  1  0  0  0  0
 10 27  1  0  0  0  0
 10 28  1  0  0  0  0
 11 20  2  0  0  0  0
 12 19  1  0  0  0  0
 12 29  1  0  0  0  0
 13 30  1  0  0  0  0
 13 31  1  0  0  0  0
 14 15  1  0  0  0  0
 14 32  1  0  0  0  0
 14 33  1  0  0  0  0
 15 16  1  0  0  0  0
 15 34  1  0  0  0  0
 15 35  1  0  0  0  0
 16 17  2  0  0  0  0
 16 18  1  0  0  0  0
 17 36  1  0  0  0  0
 18 19  2  0  0  0  0
 18 37  1  0  0  0  0
 19 38  1  0  0  0  0
M  END
>  <lm5_entropy_jk>
24.875493706853458

>  <number_of_rotatable_bonds>
6

>  <deltaG_kcalmol>
-10.64

>  <charge>
0

$$$$
