12b-24.pdb
 OpenBabel11252210453D

 76 77  0  0  1  0  0  0  0  0999 V2000
   13.0920   14.4780    7.9440 C   0  0  0  0  0  0  0  0  0  0  0  0
   11.2190   17.8630    7.5240 C   0  0  1  0  0  0  0  0  0  0  0  0
   13.9110   14.0410    6.8550 N   0  0  0  0  0  0  0  0  0  0  0  0
    8.3470   18.4270    8.9550 N   0  0  0  0  0  0  0  0  0  0  0  0
   12.1860   18.6240    6.7730 O   0  0  0  0  0  0  0  0  0  0  0  0
   13.1940   11.9160    8.2500 S   0  0  0  0  0  0  0  0  0  0  0  0
   12.6560   13.4810    8.7770 C   0  0  0  0  0  0  0  0  0  0  0  0
    9.8440   18.3160    6.9880 C   0  0  0  0  0  0  0  0  0  0  0  0
    4.8200   17.5090    9.6490 N   0  0  0  0  0  0  0  0  0  0  0  0
    5.7110   19.2780    8.4960 O   0  0  0  0  0  0  0  0  0  0  0  0
    8.7150   17.7100    7.8020 C   0  0  0  0  0  0  0  0  0  0  0  0
   11.5840   16.0430    5.8640 N   0  0  0  0  0  0  0  0  0  0  0  0
    8.1930   16.6400    7.5370 O   0  0  0  0  0  0  0  0  0  0  0  0
   14.0610   12.7340    6.8910 C   0  0  0  0  0  0  0  0  0  0  0  0
    7.2610   17.9500    9.8360 C   0  0  1  0  0  0  0  0  0  0  0  0
   10.3950   14.0720    5.9640 O   0  0  0  0  0  0  0  0  0  0  0  0
    7.4550   18.4860   11.2850 C   0  0  0  0  0  0  0  0  0  0  0  0
    6.7020   17.6160   12.2990 C   0  0  0  0  0  0  0  0  0  0  0  0
    7.0810   19.9630   11.4200 C   0  0  0  0  0  0  0  0  0  0  0  0
    5.8850   18.3210    9.2310 C   0  0  0  0  0  0  0  0  0  0  0  0
    3.5370   17.4600    8.9010 C   0  0  0  0  0  0  0  0  0  0  0  0
    3.4710   16.2620    7.9330 C   0  0  0  0  0  0  0  0  0  0  0  0
    4.4570   16.3440    6.7580 C   0  0  0  0  0  0  0  0  0  0  0  0
    3.9920   17.2930    5.6410 C   0  0  0  0  0  0  0  0  0  0  0  0
    5.1390   17.8400    4.7730 C   0  0  0  0  0  0  0  0  0  0  0  0
    6.0840   16.7510    4.2420 C   0  0  0  0  0  0  0  0  0  0  0  0
    6.9130   17.2390    3.0430 C   0  0  0  0  0  0  0  0  0  0  0  0
    7.8920   16.1710    2.5250 C   0  0  0  0  0  0  0  0  0  0  0  0
    9.1700   16.0720    3.3690 C   0  0  0  0  0  0  0  0  0  0  0  0
    9.9830   14.8140    3.0230 C   0  0  0  0  0  0  0  0  0  0  0  0
   11.3000   14.7290    3.8090 C   0  0  0  0  0  0  0  0  0  0  0  0
   11.5010   16.3370    7.3040 C   0  0  1  0  0  0  0  0  0  0  0  0
   11.0460   14.8660    5.3010 C   0  0  0  0  0  0  0  0  0  0  0  0
   12.7930   15.9340    8.0700 C   0  0  0  0  0  0  0  0  0  0  0  0
    8.6560   19.4040    9.0870 H   0  0  0  0  0  0  0  0  0  0  0  0
   11.3230   18.1170    8.6060 H   0  0  0  0  0  0  0  0  0  0  0  0
   12.8120   19.0950    7.4350 H   0  0  0  0  0  0  0  0  0  0  0  0
    9.7330   17.9950    5.9190 H   0  0  0  0  0  0  0  0  0  0  0  0
    5.0500   16.6120   10.1180 H   0  0  0  0  0  0  0  0  0  0  0  0
   12.3530   16.5310    5.3780 H   0  0  0  0  0  0  0  0  0  0  0  0
    7.3340   16.8310    9.8970 H   0  0  0  0  0  0  0  0  0  0  0  0
    8.5420   18.3560   11.5170 H   0  0  0  0  0  0  0  0  0  0  0  0
   12.0850   13.6030    9.6840 H   0  0  0  0  0  0  0  0  0  0  0  0
   12.6590   16.2070    9.1500 H   0  0  0  0  0  0  0  0  0  0  0  0
   13.6500   16.5410    7.6820 H   0  0  0  0  0  0  0  0  0  0  0  0
   14.6500   12.1380    6.1950 H   0  0  0  0  0  0  0  0  0  0  0  0
    6.9310   17.9650   13.3320 H   0  0  0  0  0  0  0  0  0  0  0  0
    7.6500   20.5750   10.6890 H   0  0  0  0  0  0  0  0  0  0  0  0
    3.3910   18.4220    8.3450 H   0  0  0  0  0  0  0  0  0  0  0  0
    2.4250   16.1950    7.5440 H   0  0  0  0  0  0  0  0  0  0  0  0
    4.5720   15.3210    6.3330 H   0  0  0  0  0  0  0  0  0  0  0  0
    3.4650   18.1680    6.0890 H   0  0  0  0  0  0  0  0  0  0  0  0
    5.7310   18.5690    5.3710 H   0  0  0  0  0  0  0  0  0  0  0  0
    5.4880   15.8670    3.9210 H   0  0  0  0  0  0  0  0  0  0  0  0
    7.4780   18.1560    3.3230 H   0  0  0  0  0  0  0  0  0  0  0  0
    8.1730   16.4280    1.4760 H   0  0  0  0  0  0  0  0  0  0  0  0
    8.8950   16.0540    4.4490 H   0  0  0  0  0  0  0  0  0  0  0  0
   10.2350   14.8300    1.9340 H   0  0  0  0  0  0  0  0  0  0  0  0
   11.9930   15.5230    3.4390 H   0  0  0  0  0  0  0  0  0  0  0  0
   10.6380   15.7640    7.7380 H   0  0  0  0  0  0  0  0  0  0  0  0
    9.8050   19.4310    7.0120 H   0  0  0  0  0  0  0  0  0  0  0  0
    7.0180   16.5540   12.2040 H   0  0  0  0  0  0  0  0  0  0  0  0
    7.2990   20.3210   12.4500 H   0  0  0  0  0  0  0  0  0  0  0  0
    2.7230   17.3540    9.6710 H   0  0  0  0  0  0  0  0  0  0  0  0
    3.6790   15.3260    8.5080 H   0  0  0  0  0  0  0  0  0  0  0  0
    5.4550   16.6710    7.1350 H   0  0  0  0  0  0  0  0  0  0  0  0
    3.2660   16.7520    4.9890 H   0  0  0  0  0  0  0  0  0  0  0  0
    4.6830   18.3840    3.9110 H   0  0  0  0  0  0  0  0  0  0  0  0
    6.7740   16.4450    5.0610 H   0  0  0  0  0  0  0  0  0  0  0  0
    6.2190   17.4940    2.2100 H   0  0  0  0  0  0  0  0  0  0  0  0
    7.3750   15.1860    2.5120 H   0  0  0  0  0  0  0  0  0  0  0  0
    9.8000   16.9730    3.1810 H   0  0  0  0  0  0  0  0  0  0  0  0
    9.3800   13.9020    3.2320 H   0  0  0  0  0  0  0  0  0  0  0  0
   11.7810   13.7400    3.6080 H   0  0  0  0  0  0  0  0  0  0  0  0
    5.9930   20.1090   11.2380 H   0  0  0  0  0  0  0  0  0  0  0  0
    5.6000   17.6780   12.1570 H   0  0  0  0  0  0  0  0  0  0  0  0
  1 34  1  0  0  0  0
  1  7  2  0  0  0  0
  2 36  1  1  0  0  0
  2 32  1  0  0  0  0
  3 14  2  0  0  0  0
  3  1  1  0  0  0  0
  4 35  1  0  0  0  0
  4 15  1  0  0  0  0
  5 37  1  0  0  0  0
  5  2  1  0  0  0  0
  6  7  1  0  0  0  0
  7 43  1  0  0  0  0
  8  2  1  0  0  0  0
  8 11  1  0  0  0  0
  9 39  1  0  0  0  0
 10 20  2  0  0  0  0
 11  4  1  0  0  0  0
 12 32  1  0  0  0  0
 13 11  2  0  0  0  0
 14  6  1  0  0  0  0
 15 41  1  1  0  0  0
 15 17  1  0  0  0  0
 17 42  1  0  0  0  0
 17 18  1  0  0  0  0
 18 62  1  0  0  0  0
 18 47  1  0  0  0  0
 19 17  1  0  0  0  0
 19 63  1  0  0  0  0
 20  9  1  0  0  0  0
 20 15  1  0  0  0  0
 21  9  1  0  0  0  0
 21 64  1  0  0  0  0
 22 65  1  0  0  0  0
 22 21  1  0  0  0  0
 23 66  1  0  0  0  0
 23 22  1  0  0  0  0
 24 52  1  0  0  0  0
 24 23  1  0  0  0  0
 25 53  1  0  0  0  0
 25 24  1  0  0  0  0
 26 25  1  0  0  0  0
 26 69  1  0  0  0  0
 27 55  1  0  0  0  0
 27 26  1  0  0  0  0
 28 27  1  0  0  0  0
 28 29  1  0  0  0  0
 29 57  1  0  0  0  0
 30 29  1  0  0  0  0
 30 73  1  0  0  0  0
 30 31  1  0  0  0  0
 31 33  1  0  0  0  0
 32 60  1  1  0  0  0
 32 34  1  0  0  0  0
 33 12  1  0  0  0  0
 33 16  2  0  0  0  0
 34 44  1  0  0  0  0
 38  8  1  0  0  0  0
 40 12  1  0  0  0  0
 45 34  1  0  0  0  0
 46 14  1  0  0  0  0
 48 19  1  0  0  0  0
 49 21  1  0  0  0  0
 50 22  1  0  0  0  0
 51 23  1  0  0  0  0
 54 26  1  0  0  0  0
 56 28  1  0  0  0  0
 58 30  1  0  0  0  0
 59 31  1  0  0  0  0
 61  8  1  0  0  0  0
 67 24  1  0  0  0  0
 68 25  1  0  0  0  0
 70 27  1  0  0  0  0
 71 28  1  0  0  0  0
 72 29  1  0  0  0  0
 74 31  1  0  0  0  0
 75 19  1  0  0  0  0
 76 18  1  0  0  0  0
M  END
>  <IC50_NM>
600

>  <number_of_rotatable_bonds>
3

>  <charge>
0

>  <lm5_entropy_jk>
30.51387600249522

$$$$
