2IKJ.pdb
 OpenBabel11252210453D

 37 38  0  0  0  0  0  0  0  0999 V2000
   17.2490   -4.4610   11.1470 C   0  0  0  0  0  0  0  0  0  0  0  0
   17.9770   -3.5320   10.2700 N   0  3  0  0  0  0  0  0  0  0  0  0
   17.3460   -2.7860    9.5330 O   0  5  0  0  0  0  0  0  0  0  0  0
   19.2030   -3.5750   10.2940 O   0  0  0  0  0  0  0  0  0  0  0  0
   17.9330   -5.0160   12.2380 C   0  0  0  0  0  0  0  0  0  0  0  0
   17.2700   -5.9130   13.0860 C   0  0  0  0  0  0  0  0  0  0  0  0
   18.0470   -6.4730   14.2620 C   0  0  0  0  0  0  0  0  0  0  0  0
   17.2550   -7.3620   15.1300 N   0  0  0  0  0  0  0  0  0  0  0  0
   17.4650   -8.7390   15.1080 C   0  0  0  0  0  0  0  0  0  0  0  0
   16.7130   -9.5480   16.1100 C   0  0  0  0  0  0  0  0  0  0  0  0
   16.3690  -10.8690   15.8050 C   0  0  0  0  0  0  0  0  0  0  0  0
   15.6040  -11.6380   16.6890 C   0  0  0  0  0  0  0  0  0  0  0  0
   15.1740  -11.0420   17.8720 C   0  0  0  0  0  0  0  0  0  0  0  0
   14.1590  -11.9570   18.9410 Cl  0  0  0  0  0  0  0  0  0  0  0  0
   15.5110   -9.7500   18.2450 C   0  0  0  0  0  0  0  0  0  0  0  0
   16.3510   -9.0210   17.3820 C   0  0  0  0  0  0  0  0  0  0  0  0
   16.9370   -7.8390   17.6480 O   0  0  0  0  0  0  0  0  0  0  0  0
   16.6310   -7.0700   18.8470 C   0  0  0  0  0  0  0  0  0  0  0  0
   15.5610   -5.9880   18.4610 C   0  0  0  0  0  0  0  0  0  0  0  0
   15.0120   -5.4390   19.4350 O   0  0  0  0  0  0  0  0  0  0  0  0
   15.3360   -5.8020   17.2540 O   0  5  0  0  0  0  0  0  0  0  0  0
   18.2050   -9.2670   14.2820 O   0  0  0  0  0  0  0  0  0  0  0  0
   15.9270   -6.2260   12.8260 C   0  0  0  0  0  0  0  0  0  0  0  0
   15.2520   -5.6550   11.7420 C   0  0  0  0  0  0  0  0  0  0  0  0
   15.9030   -4.7580   10.8920 C   0  0  0  0  0  0  0  0  0  0  0  0
   16.3040   -7.7220   19.6710 H   0  0  0  0  0  0  0  0  0  0  0  0
   17.6330   -6.6360   19.0580 H   0  0  0  0  0  0  0  0  0  0  0  0
   16.6810   -6.8890   15.8590 H   0  0  0  0  0  0  0  0  0  0  0  0
   18.9380   -7.0390   13.8650 H   0  0  0  0  0  0  0  0  0  0  0  0
   18.4150   -5.6060   14.8800 H   0  0  0  0  0  0  0  0  0  0  0  0
   18.9670   -4.7230   12.4340 H   0  0  0  0  0  0  0  0  0  0  0  0
   15.3660   -4.2860   10.0660 H   0  0  0  0  0  0  0  0  0  0  0  0
   14.1970   -5.8830   11.5680 H   0  0  0  0  0  0  0  0  0  0  0  0
   15.3910   -6.9060   13.4920 H   0  0  0  0  0  0  0  0  0  0  0  0
   15.1620   -9.3400   19.1890 H   0  0  0  0  0  0  0  0  0  0  0  0
   15.3460  -12.6700   16.4440 H   0  0  0  0  0  0  0  0  0  0  0  0
   16.6800  -11.3210   14.8550 H   0  0  0  0  0  0  0  0  0  0  0  0
  1  5  1  0  0  0  0
  2  4  2  0  0  0  0
  2  1  1  0  0  0  0
  3  2  1  0  0  0  0
  5 31  1  0  0  0  0
  5  6  2  0  0  0  0
  6  7  1  0  0  0  0
  7 30  1  0  0  0  0
  7  8  1  0  0  0  0
  8  9  1  0  0  0  0
  8 28  1  0  0  0  0
  9 10  1  0  0  0  0
 10 16  1  0  0  0  0
 11 10  2  0  0  0  0
 11 12  1  0  0  0  0
 12 13  2  0  0  0  0
 13 15  1  0  0  0  0
 13 14  1  0  0  0  0
 15 35  1  0  0  0  0
 16 17  1  0  0  0  0
 16 15  2  0  0  0  0
 17 18  1  0  0  0  0
 18 27  1  0  0  0  0
 18 26  1  0  0  0  0
 19 18  1  0  0  0  0
 19 20  2  0  0  0  0
 21 19  1  0  0  0  0
 22  9  2  0  0  0  0
 23  6  1  0  0  0  0
 23 34  1  0  0  0  0
 24 23  2  0  0  0  0
 25  1  2  0  0  0  0
 25 24  1  0  0  0  0
 29  7  1  0  0  0  0
 32 25  1  0  0  0  0
 33 24  1  0  0  0  0
 36 12  1  0  0  0  0
 37 11  1  0  0  0  0
M  CHG  3   2   1   3  -1  21  -1
M  END
>  <lm5_entropy_jk>
26.811197289937112

>  <number_of_rotatable_bonds>
8

>  <deltaG_kcalmol>
-10.09

>  <charge>
-1

$$$$
