3S00
 OpenBabel11252210453D

 28 29  0  0  1  0  0  0  0  0999 V2000
   65.7580  154.4170  -50.1190 N   0  0  0  0  0  0  0  0  0  0  0  0
   67.3440  153.5030  -51.5220 N   0  0  0  0  0  0  0  0  0  0  0  0
   64.2250  154.9960  -48.4580 N   0  0  0  0  0  0  0  0  0  0  0  0
   66.8060  153.5490  -50.3010 C   0  0  0  0  0  0  0  0  0  0  0  0
   67.1780  152.7750  -49.2340 C   0  0  0  0  0  0  0  0  0  0  0  0
   68.3040  151.8140  -49.2830 C   0  0  0  0  0  0  0  0  0  0  0  0
   68.6440  150.9620  -48.1020 C   0  0  0  0  0  0  0  0  0  0  0  0
   65.2790  154.2520  -48.9040 C   0  0  0  0  0  0  0  0  0  0  0  0
   63.4600  154.6930  -47.2220 C   0  0  0  0  0  0  0  0  0  0  0  0
   62.7080  155.9260  -46.7820 C   0  0  0  0  0  0  0  0  0  0  0  0
   62.8540  156.4860  -45.5760 C   0  0  0  0  0  0  0  0  0  0  0  0
   69.6900  149.2570  -46.5760 C   0  0  0  0  0  0  0  0  0  0  0  0
   68.7350  150.0080  -45.9530 C   0  0  0  0  0  0  0  0  0  0  0  0
   68.1490  150.9860  -46.8060 C   0  0  0  0  0  0  0  0  0  0  0  0
   68.9610  151.7020  -50.3040 O   0  0  0  0  0  0  0  0  0  0  0  0
   70.6410  148.0220  -45.8180 Cl  0  0  0  0  0  0  0  0  0  0  0  0
   65.9960  152.9740  -47.9720 S   0  0  0  0  0  0  0  0  0  0  0  0
   69.8920  149.7190  -48.2570 S   0  0  0  0  0  0  0  0  0  0  0  0
   67.0630  154.1580  -52.2420 H   0  0  0  0  0  0  0  0  0  0  0  0
   68.1450  152.8940  -51.6150 H   0  0  0  0  0  0  0  0  0  0  0  0
   63.7490  155.5210  -49.1910 H   0  0  0  0  0  0  0  0  0  0  0  0
   64.1220  154.3530  -46.4140 H   0  0  0  0  0  0  0  0  0  0  0  0
   62.7490  153.8740  -47.4070 H   0  0  0  0  0  0  0  0  0  0  0  0
   68.4650  149.8940  -44.9050 H   0  0  0  0  0  0  0  0  0  0  0  0
   67.4170  151.6710  -46.4010 H   0  0  0  0  0  0  0  0  0  0  0  0
   62.2960  157.3790  -45.2920 H   0  0  0  0  0  0  0  0  0  0  0  0
   63.5320  156.0800  -44.8250 H   0  0  0  0  0  0  0  0  0  0  0  0
   62.0200  156.3500  -47.5180 H   0  0  0  0  0  0  0  0  0  0  0  0
  1  4  1  0  0  0  0
  1  8  2  0  0  0  0
  2  4  1  0  0  0  0
  2 19  1  0  0  0  0
  2 20  1  0  0  0  0
  3  8  1  0  0  0  0
  3  9  1  0  0  0  0
  3 21  1  0  0  0  0
  4  5  2  0  0  0  0
  5  6  1  0  0  0  0
  5 17  1  0  0  0  0
  6  7  1  0  0  0  0
  6 15  2  0  0  0  0
  7 14  2  0  0  0  0
  7 18  1  0  0  0  0
  8 17  1  0  0  0  0
  9 10  1  0  0  0  0
  9 22  1  0  0  0  0
  9 23  1  0  0  0  0
 10 11  2  0  0  0  0
 10 28  1  0  0  0  0
 11 26  1  0  0  0  0
 11 27  1  0  0  0  0
 12 13  2  0  0  0  0
 12 16  1  0  0  0  0
 12 18  1  0  0  0  0
 13 14  1  0  0  0  0
 13 24  1  0  0  0  0
 14 25  1  0  0  0  0
M  END
>  <lm5_entropy_jk>
31.418959509749985

>  <number_of_rotatable_bonds>
5

>  <IC50_NM>
12000

>  <charge>
0

$$$$
