3R9D
 OpenBabel11252210453D

 41 43  0  0  0  0  0  0  0  0999 V2000
   65.7070  154.5310  -50.6780 N   0  0  0  0  0  0  0  0  0  0  0  0
   64.4230  155.1040  -48.8390 N   0  0  0  0  0  0  0  0  0  0  0  0
   68.8020  151.6240  -48.9310 N   0  0  0  0  0  0  0  0  0  0  0  0
   67.0800  153.5400  -52.2500 N   0  0  0  0  0  0  0  0  0  0  0  0
   61.9320  153.7790  -42.9920 N   0  0  0  0  0  0  0  0  0  0  0  0
   67.3860  153.0990  -49.9500 C   0  0  0  0  0  0  0  0  0  0  0  0
   66.7680  153.7180  -50.9780 C   0  0  0  0  0  0  0  0  0  0  0  0
   65.4820  154.4530  -49.3810 C   0  0  0  0  0  0  0  0  0  0  0  0
   63.7200  154.9540  -47.6670 C   0  0  0  0  0  0  0  0  0  0  0  0
   68.4950  152.1920  -50.1110 C   0  0  0  0  0  0  0  0  0  0  0  0
   62.9950  156.0360  -47.1750 C   0  0  0  0  0  0  0  0  0  0  0  0
   62.2110  155.9280  -46.0250 C   0  0  0  0  0  0  0  0  0  0  0  0
   62.1480  154.6820  -45.3870 C   0  0  0  0  0  0  0  0  0  0  0  0
   62.8560  153.5690  -45.8670 C   0  0  0  0  0  0  0  0  0  0  0  0
   63.6420  153.7240  -47.0110 C   0  0  0  0  0  0  0  0  0  0  0  0
   69.7240  150.6430  -48.6090 C   0  0  0  0  0  0  0  0  0  0  0  0
   69.4630  149.8580  -47.4880 C   0  0  0  0  0  0  0  0  0  0  0  0
   70.3510  148.8510  -47.0940 C   0  0  0  0  0  0  0  0  0  0  0  0
   71.5250  148.6720  -47.8340 C   0  0  0  0  0  0  0  0  0  0  0  0
   71.7850  149.4610  -48.9530 C   0  0  0  0  0  0  0  0  0  0  0  0
   70.8920  150.4500  -49.3380 C   0  0  0  0  0  0  0  0  0  0  0  0
   69.0440  151.9550  -51.1660 O   0  0  0  0  0  0  0  0  0  0  0  0
   60.1430  153.3570  -44.3020 O   0  0  0  0  0  0  0  0  0  0  0  0
   60.6800  155.6710  -43.3300 O   0  0  0  0  0  0  0  0  0  0  0  0
   66.5940  153.4660  -48.4560 S   0  0  0  0  0  0  0  0  0  0  0  0
   61.0500  154.4640  -44.0560 S   0  0  0  0  0  0  0  0  0  0  0  0
   72.9130  149.2580  -49.6590 F   0  0  0  0  0  0  0  0  0  0  0  0
   63.9470  155.7010  -49.5070 H   0  0  0  0  0  0  0  0  0  0  0  0
   68.1950  151.9170  -48.1860 H   0  0  0  0  0  0  0  0  0  0  0  0
   66.8190  154.2590  -52.9120 H   0  0  0  0  0  0  0  0  0  0  0  0
   67.9420  153.0260  -52.3820 H   0  0  0  0  0  0  0  0  0  0  0  0
   61.2020  153.0740  -43.0990 H   0  0  0  0  0  0  0  0  0  0  0  0
   61.4920  154.5240  -42.4520 H   0  0  0  0  0  0  0  0  0  0  0  0
   63.0220  156.9780  -47.7070 H   0  0  0  0  0  0  0  0  0  0  0  0
   61.6420  156.7990  -45.6770 H   0  0  0  0  0  0  0  0  0  0  0  0
   62.7960  152.5880  -45.3830 H   0  0  0  0  0  0  0  0  0  0  0  0
   64.1590  152.8590  -47.4080 H   0  0  0  0  0  0  0  0  0  0  0  0
   68.5450  150.0110  -46.9260 H   0  0  0  0  0  0  0  0  0  0  0  0
   70.1240  148.2090  -46.2400 H   0  0  0  0  0  0  0  0  0  0  0  0
   72.2060  147.8760  -47.5630 H   0  0  0  0  0  0  0  0  0  0  0  0
   71.1090  151.0570  -50.2080 H   0  0  0  0  0  0  0  0  0  0  0  0
  1  8  2  0  0  0  0
  2  9  1  0  0  0  0
  2 28  1  0  0  0  0
  3 16  1  0  0  0  0
  3 29  1  0  0  0  0
  4  7  1  0  0  0  0
  4 30  1  0  0  0  0
  4 31  1  0  0  0  0
  5 32  1  0  0  0  0
  5 33  1  0  0  0  0
  6 25  1  0  0  0  0
  7  1  1  0  0  0  0
  7  6  2  0  0  0  0
  8  2  1  0  0  0  0
  8 25  1  0  0  0  0
  9 11  2  0  0  0  0
  9 15  1  0  0  0  0
 10  6  1  0  0  0  0
 10  3  1  0  0  0  0
 11 12  1  0  0  0  0
 11 34  1  0  0  0  0
 12 13  2  0  0  0  0
 12 35  1  0  0  0  0
 13 26  1  0  0  0  0
 14 13  1  0  0  0  0
 14 36  1  0  0  0  0
 15 14  2  0  0  0  0
 15 37  1  0  0  0  0
 16 17  2  0  0  0  0
 17 18  1  0  0  0  0
 17 38  1  0  0  0  0
 18 39  1  0  0  0  0
 19 18  2  0  0  0  0
 19 40  1  0  0  0  0
 20 19  1  0  0  0  0
 21 20  2  0  0  0  0
 21 16  1  0  0  0  0
 21 41  1  0  0  0  0
 22 10  2  0  0  0  0
 23 26  2  0  0  0  0
 26 24  2  0  0  0  0
 26  5  1  0  0  0  0
 27 20  1  0  0  0  0
M  END
>  <lm5_entropy_jk>
21.052089499889224

>  <number_of_rotatable_bonds>
6

>  <IC50_NM>
71000

>  <charge>
0

$$$$
