3f15.pdb
 OpenBabel11252210453D

 40 40  0  0  1  0  0  0  0  0999 V2000
    5.4470   25.3300    4.5930 C   0  0  0  0  0  0  0  0  0  0  0  0
    7.7590   27.0010    2.5840 N   0  0  0  0  0  0  0  0  0  0  0  0
    7.2630   27.5370    5.0000 O   0  0  0  0  0  0  0  0  0  0  0  0
    7.8490   26.4480    4.2100 S   0  0  0  0  0  0  0  0  0  0  0  0
    4.6020   24.3010    4.9960 C   0  0  0  0  0  0  0  0  0  0  0  0
    8.5550   23.9110    1.5530 N   0  0  0  0  0  0  0  0  0  0  0  0
    9.2350   26.1090    4.4790 O   0  0  0  0  0  0  0  0  0  0  0  0
    6.8160   25.1040    4.3620 C   0  0  0  0  0  0  0  0  0  0  0  0
    4.5170   21.9450    5.7100 O   0  0  0  0  0  0  0  0  0  0  0  0
    5.1450   23.0140    5.1510 C   0  0  0  0  0  0  0  0  0  0  0  0
    7.4050   30.2540    4.5240 O   0  0  0  0  0  0  0  0  0  0  0  0
    7.3010   23.7810    4.3740 C   0  0  0  0  0  0  0  0  0  0  0  0
    8.0980   22.7400    0.9110 O   0  0  0  0  0  0  0  0  0  0  0  0
    7.6290   29.5620    2.1920 C   0  0  1  0  0  0  0  0  0  0  0  0
    8.5390   29.6530    1.0880 O   0  0  0  0  0  0  0  0  0  0  0  0
    6.4710   22.7330    4.7450 C   0  0  0  0  0  0  0  0  0  0  0  0
    6.8580   24.8890    0.3850 O   0  0  0  0  0  0  0  0  0  0  0  0
    6.9290   28.1790    2.2470 C   0  0  0  0  0  0  0  0  0  0  0  0
    7.8770   25.0570    1.0330 C   0  0  0  0  0  0  0  0  0  0  0  0
    3.1210   22.0550    6.1060 C   0  0  0  0  0  0  0  0  0  0  0  0
    8.5310   26.3700    1.5090 C   0  0  0  0  0  0  0  0  0  0  0  0
    8.3520   30.0070    3.4850 C   0  0  0  0  0  0  0  0  0  0  0  0
    5.0250   26.3340    4.4710 H   0  0  0  0  0  0  0  0  0  0  0  0
    3.5460   24.4990    5.1720 H   0  0  0  0  0  0  0  0  0  0  0  0
    9.5990   23.8680    1.6160 H   0  0  0  0  0  0  0  0  0  0  0  0
    7.1160   29.3530    4.8810 H   0  0  0  0  0  0  0  0  0  0  0  0
    8.3380   23.5560    4.0900 H   0  0  0  0  0  0  0  0  0  0  0  0
    8.3580   21.9770    1.6420 H   0  0  0  0  0  0  0  0  0  0  0  0
    6.8490   30.3210    1.9090 H   0  0  0  0  0  0  0  0  0  0  0  0
    9.3380   29.1020    1.2510 H   0  0  0  0  0  0  0  0  0  0  0  0
    6.8290   21.7030    4.7090 H   0  0  0  0  0  0  0  0  0  0  0  0
    6.4360   28.0120    1.2510 H   0  0  0  0  0  0  0  0  0  0  0  0
    6.1210   28.2630    3.0270 H   0  0  0  0  0  0  0  0  0  0  0  0
    2.9210   21.0070    6.4390 H   0  0  0  0  0  0  0  0  0  0  0  0
    2.4950   22.3290    5.2290 H   0  0  0  0  0  0  0  0  0  0  0  0
    3.0240   22.7790    6.9400 H   0  0  0  0  0  0  0  0  0  0  0  0
    8.6020   27.0410    0.6030 H   0  0  0  0  0  0  0  0  0  0  0  0
    9.5890   26.1740    1.8570 H   0  0  0  0  0  0  0  0  0  0  0  0
    8.8470   30.9940    3.3180 H   0  0  0  0  0  0  0  0  0  0  0  0
    9.0800   29.2370    3.8260 H   0  0  0  0  0  0  0  0  0  0  0  0
  1  8  2  0  0  0  0
  1  5  1  0  0  0  0
  1 23  1  0  0  0  0
  2 21  1  0  0  0  0
  2 18  1  0  0  0  0
  2  4  1  0  0  0  0
  3  4  2  0  0  0  0
  4  7  2  0  0  0  0
  4  8  1  0  0  0  0
  5 10  2  0  0  0  0
  5 24  1  0  0  0  0
  6 13  1  0  0  0  0
  6 19  1  0  0  0  0
  6 25  1  0  0  0  0
  8 12  1  0  0  0  0
  9 10  1  0  0  0  0
  9 20  1  0  0  0  0
 10 16  1  0  0  0  0
 11 22  1  0  0  0  0
 11 26  1  0  0  0  0
 12 16  2  0  0  0  0
 12 27  1  0  0  0  0
 13 28  1  0  0  0  0
 14 15  1  0  0  0  0
 14 18  1  0  0  0  0
 14 22  1  0  0  0  0
 14 29  1  6  0  0  0
 15 30  1  0  0  0  0
 16 31  1  0  0  0  0
 17 19  2  0  0  0  0
 18 32  1  0  0  0  0
 18 33  1  0  0  0  0
 19 21  1  0  0  0  0
 20 34  1  0  0  0  0
 20 35  1  0  0  0  0
 20 36  1  0  0  0  0
 21 37  1  0  0  0  0
 21 38  1  0  0  0  0
 22 39  1  0  0  0  0
 22 40  1  0  0  0  0
M  END
>  <COMPND>
3f15.pdb

>  <AUTHOR>
GENERATED BY OPEN BABEL 2.3.1

>  <MASTER>
0    0    0    0    0    0    0    0   40    0   40    0

>  <lm5_entropy_jk>
33.444459229930345

>  <number_of_rotatable_bonds>
9

>  <deltaG_kcalmol>
-11.06

>  <charge>
0

$$$$
