3QTW
 OpenBabel11252210453D

 33 35  0  0  1  0  0  0  0  0999 V2000
   65.8670  154.2780  -50.4720 N   0  0  0  0  0  0  0  0  0  0  0  0
   67.3480  153.4770  -52.0550 N   0  0  0  0  0  0  0  0  0  0  0  0
   70.6520  149.5720  -47.7850 N   0  0  0  0  0  0  0  0  0  0  0  0
   64.4180  154.6430  -48.7040 N   0  0  0  0  0  0  0  0  0  0  0  0
   66.9560  153.5090  -50.7850 C   0  0  0  0  0  0  0  0  0  0  0  0
   67.4840  152.7440  -49.7960 C   0  0  0  0  0  0  0  0  0  0  0  0
   68.6020  151.8190  -50.0040 C   0  0  0  0  0  0  0  0  0  0  0  0
   68.9270  150.8280  -48.9310 C   0  0  0  0  0  0  0  0  0  0  0  0
   70.2740  150.5130  -48.6790 C   0  0  0  0  0  0  0  0  0  0  0  0
   69.6930  148.8920  -47.1200 C   0  0  0  0  0  0  0  0  0  0  0  0
   68.3250  149.1310  -47.3230 C   0  0  0  0  0  0  0  0  0  0  0  0
   67.9280  150.1090  -48.2470 C   0  0  0  0  0  0  0  0  0  0  0  0
   65.5460  154.0670  -49.2090 C   0  0  0  0  0  0  0  0  0  0  0  0
   63.7130  154.5600  -47.5120 C   0  0  0  0  0  0  0  0  0  0  0  0
   62.8660  155.6220  -47.1580 C   0  0  0  0  0  0  0  0  0  0  0  0
   62.1120  155.5850  -45.9740 C   0  0  0  0  0  0  0  0  0  0  0  0
   62.2070  154.4700  -45.1280 C   0  0  0  0  0  0  0  0  0  0  0  0
   63.0440  153.3980  -45.4750 C   0  0  0  0  0  0  0  0  0  0  0  0
   63.7800  153.4370  -46.6710 C   0  0  0  0  0  0  0  0  0  0  0  0
   69.2460  151.8260  -51.0380 O   0  0  0  0  0  0  0  0  0  0  0  0
   66.6420  153.0390  -48.3020 S   0  0  0  0  0  0  0  0  0  0  0  0
   67.0750  154.2120  -52.6960 H   0  0  0  0  0  0  0  0  0  0  0  0
   68.2080  152.9640  -52.2060 H   0  0  0  0  0  0  0  0  0  0  0  0
   71.0730  151.0230  -49.2290 H   0  0  0  0  0  0  0  0  0  0  0  0
   70.0260  148.1200  -46.4180 H   0  0  0  0  0  0  0  0  0  0  0  0
   67.5820  148.5520  -46.7750 H   0  0  0  0  0  0  0  0  0  0  0  0
   66.8710  150.2850  -48.4430 H   0  0  0  0  0  0  0  0  0  0  0  0
   63.9720  155.2520  -49.3840 H   0  0  0  0  0  0  0  0  0  0  0  0
   62.7890  156.4860  -47.8110 H   0  0  0  0  0  0  0  0  0  0  0  0
   61.4590  156.4190  -45.7130 H   0  0  0  0  0  0  0  0  0  0  0  0
   61.6300  154.4360  -44.2030 H   0  0  0  0  0  0  0  0  0  0  0  0
   63.1260  152.5360  -44.8150 H   0  0  0  0  0  0  0  0  0  0  0  0
   64.3870  152.5790  -46.9380 H   0  0  0  0  0  0  0  0  0  0  0  0
  1  5  1  0  0  0  0
  1 13  2  0  0  0  0
  2  5  1  0  0  0  0
  2 22  1  0  0  0  0
  2 23  1  0  0  0  0
  3  9  2  0  0  0  0
  3 10  1  0  0  0  0
  4 13  1  0  0  0  0
  4 14  1  0  0  0  0
  4 28  1  0  0  0  0
  5  6  2  0  0  0  0
  6 21  1  0  0  0  0
  7  6  1  0  0  0  0
  7  8  1  0  0  0  0
  7 20  2  0  0  0  0
  8  9  1  0  0  0  0
  8 12  2  0  0  0  0
  9 24  1  0  0  0  0
 10 11  2  0  0  0  0
 10 25  1  0  0  0  0
 11 12  1  0  0  0  0
 11 26  1  0  0  0  0
 12 27  1  0  0  0  0
 13 21  1  0  0  0  0
 14 15  2  0  0  0  0
 14 19  1  0  0  0  0
 15 16  1  0  0  0  0
 15 29  1  0  0  0  0
 16 17  2  0  0  0  0
 16 30  1  0  0  0  0
 17 18  1  0  0  0  0
 17 31  1  0  0  0  0
 18 19  2  0  0  0  0
 18 32  1  0  0  0  0
 19 33  1  0  0  0  0
M  END
>  <lm5_entropy_jk>
20.66385753466715

>  <number_of_rotatable_bonds>
4

>  <IC50_NM>
650

>  <charge>
0

$$$$
