2Q54
 OpenBabel11252210453D

 92 95  0  0  1  0  0  0  0  0999 V2000
    7.2990   -6.0970   16.9390 N   0  0  0  0  0  0  0  0  0  0  0  0
    8.0960   -5.9000   19.0800 O   0  0  0  0  0  0  0  0  0  0  0  0
    7.3550   -8.0840   18.3770 C   0  0  0  0  0  0  0  0  0  0  0  0
    6.3680   -4.0150   14.6470 O   0  0  0  0  0  0  0  0  0  0  0  0
    7.6380   -6.6200   18.2030 C   0  0  0  0  0  0  0  0  0  0  0  0
    5.6300   -3.4330   16.7110 N   0  0  0  0  0  0  0  0  0  0  0  0
    7.2190    0.7470   12.7410 C   0  0  0  0  0  0  0  0  0  0  0  0
    4.4850    0.3240   13.7670 N   0  0  0  0  0  0  0  0  0  0  0  0
    5.1640    0.7230   16.4870 O   0  0  0  0  0  0  0  0  0  0  0  0
    6.9550    2.0340   12.2450 C   0  0  0  0  0  0  0  0  0  0  0  0
    4.2700   -1.2020   12.0920 O   0  0  0  0  0  0  0  0  0  0  0  0
    7.1450    2.3140   10.8900 C   0  0  0  0  0  0  0  0  0  0  0  0
    7.5870    1.3120   10.0210 C   0  0  0  0  0  0  0  0  0  0  0  0
    7.8890    0.0410   10.5200 C   0  0  0  0  0  0  0  0  0  0  0  0
    7.7130   -0.2430   11.8760 C   0  0  0  0  0  0  0  0  0  0  0  0
    7.7480   -4.7510   16.5290 C   0  0  2  0  0  0  0  0  0  0  0  0
    6.5300   -4.0680   15.8590 C   0  0  0  0  0  0  0  0  0  0  0  0
    4.3180   -2.9540   16.1960 C   0  0  1  0  0  0  0  0  0  0  0  0
    8.9300   -4.7760   15.5130 C   0  0  0  0  0  0  0  0  0  0  0  0
    9.5180   -3.3650   15.3900 C   0  0  0  0  0  0  0  0  0  0  0  0
   10.0160   -5.7870   15.8930 C   0  0  0  0  0  0  0  0  0  0  0  0
    2.3180   -7.0630   15.7590 C   0  0  0  0  0  0  0  0  0  0  0  0
    2.9380   -7.8690   16.7180 C   0  0  0  0  0  0  0  0  0  0  0  0
    3.6450   -7.2760   17.7680 C   0  0  0  0  0  0  0  0  0  0  0  0
    3.7240   -5.8850   17.8630 C   0  0  0  0  0  0  0  0  0  0  0  0
    3.1010   -5.0740   16.9000 C   0  0  0  0  0  0  0  0  0  0  0  0
    2.4030   -5.6710   15.8390 C   0  0  0  0  0  0  0  0  0  0  0  0
    3.1640   -3.5790   17.0240 C   0  0  0  0  0  0  0  0  0  0  0  0
    4.2050   -1.4210   16.3150 C   0  0  0  0  0  0  0  0  0  0  0  0
    5.4140   -0.5860   15.9010 C   0  0  1  0  0  0  0  0  0  0  0  0
    5.6440   -0.3770   14.3780 C   0  0  2  0  0  0  0  0  0  0  0  0
    3.9340   -0.1360   12.5880 C   0  0  0  0  0  0  0  0  0  0  0  0
    2.7690    0.6650   11.9740 C   0  0  1  0  0  0  0  0  0  0  0  0
    2.6910    1.9900   12.5840 O   0  0  0  0  0  0  0  0  0  0  0  0
    6.9530    0.4320   14.1830 C   0  0  0  0  0  0  0  0  0  0  0  0
    2.5460    2.9820   11.5980 C   0  0  0  0  0  0  0  0  0  0  0  0
    2.4070    4.1330   11.9060 O   0  0  0  0  0  0  0  0  0  0  0  0
    2.4890    2.3550   10.3320 N   0  0  0  0  0  0  0  0  0  0  0  0
    2.9140    0.9250   10.4540 C   0  0  0  0  0  0  0  0  0  0  0  0
    2.7770    3.1050    9.1260 C   0  0  0  0  0  0  0  0  0  0  0  0
    4.0940    3.3700    8.7200 C   0  0  0  0  0  0  0  0  0  0  0  0
    4.3050    4.1590    7.5860 C   0  0  0  0  0  0  0  0  0  0  0  0
    3.2260    4.6380    6.8360 C   0  0  0  0  0  0  0  0  0  0  0  0
    1.9190    4.3560    7.2460 C   0  0  0  0  0  0  0  0  0  0  0  0
    1.6830    3.6030    8.3990 C   0  0  0  0  0  0  0  0  0  0  0  0
    5.7190    4.5150    7.1960 C   0  0  0  0  0  0  0  0  0  0  0  0
    6.2580    5.4920    7.6750 O   0  0  0  0  0  0  0  0  0  0  0  0
    6.3660    3.5910    6.2180 C   0  0  0  0  0  0  0  0  0  0  0  0
    7.1090   -6.7630   16.1670 H   0  0  0  0  0  0  0  0  0  0  0  0
    6.5820   -8.4660   17.6640 H   0  0  0  0  0  0  0  0  0  0  0  0
    8.2910   -8.6730   18.2020 H   0  0  0  0  0  0  0  0  0  0  0  0
    7.0000   -8.2960   19.4140 H   0  0  0  0  0  0  0  0  0  0  0  0
    5.7060   -3.4970   17.7360 H   0  0  0  0  0  0  0  0  0  0  0  0
    4.2780    1.2540   14.1370 H   0  0  0  0  0  0  0  0  0  0  0  0
    6.0550    0.9690   16.9460 H   0  0  0  0  0  0  0  0  0  0  0  0
    6.6090    2.8200   12.9190 H   0  0  0  0  0  0  0  0  0  0  0  0
    6.9560    3.3200   10.5090 H   0  0  0  0  0  0  0  0  0  0  0  0
    7.6900    1.5200    8.9540 H   0  0  0  0  0  0  0  0  0  0  0  0
    8.2600   -0.7280    9.8450 H   0  0  0  0  0  0  0  0  0  0  0  0
    7.9620   -1.2310   12.2630 H   0  0  0  0  0  0  0  0  0  0  0  0
    8.0630   -4.1790   17.4430 H   0  0  0  0  0  0  0  0  0  0  0  0
    4.2200   -3.2660   15.1210 H   0  0  0  0  0  0  0  0  0  0  0  0
    8.5080   -5.0780   14.5220 H   0  0  0  0  0  0  0  0  0  0  0  0
   10.3520   -3.3700   14.6550 H   0  0  0  0  0  0  0  0  0  0  0  0
    8.7380   -2.6510   15.0450 H   0  0  0  0  0  0  0  0  0  0  0  0
    9.9200   -3.0220   16.3680 H   0  0  0  0  0  0  0  0  0  0  0  0
   10.7780   -5.8110   15.0840 H   0  0  0  0  0  0  0  0  0  0  0  0
   10.5080   -5.4990   16.8480 H   0  0  0  0  0  0  0  0  0  0  0  0
    9.5910   -6.8090   15.9970 H   0  0  0  0  0  0  0  0  0  0  0  0
    1.7740   -7.5190   14.9380 H   0  0  0  0  0  0  0  0  0  0  0  0
    2.8750   -8.9570   16.6520 H   0  0  0  0  0  0  0  0  0  0  0  0
    4.1370   -7.9000   18.5170 H   0  0  0  0  0  0  0  0  0  0  0  0
    4.2750   -5.4270   18.6870 H   0  0  0  0  0  0  0  0  0  0  0  0
    1.9170   -5.0510   15.0870 H   0  0  0  0  0  0  0  0  0  0  0  0
    2.2010   -3.1250   16.6870 H   0  0  0  0  0  0  0  0  0  0  0  0
    3.2930   -3.3030   18.1020 H   0  0  0  0  0  0  0  0  0  0  0  0
    4.0540   -1.1920   17.4030 H   0  0  0  0  0  0  0  0  0  0  0  0
    3.2970   -1.0950   15.7540 H   0  0  0  0  0  0  0  0  0  0  0  0
    6.3500   -0.9970   16.3570 H   0  0  0  0  0  0  0  0  0  0  0  0
    5.7660   -1.3880   13.9000 H   0  0  0  0  0  0  0  0  0  0  0  0
    1.8010    0.1600   12.2270 H   0  0  0  0  0  0  0  0  0  0  0  0
    6.8960    1.3740   14.7900 H   0  0  0  0  0  0  0  0  0  0  0  0
    7.8010   -0.1580   14.6170 H   0  0  0  0  0  0  0  0  0  0  0  0
    2.2180    0.2850    9.8540 H   0  0  0  0  0  0  0  0  0  0  0  0
    3.9660    0.7850   10.0970 H   0  0  0  0  0  0  0  0  0  0  0  0
    4.9460    2.9390    9.2510 H   0  0  0  0  0  0  0  0  0  0  0  0
    3.3950    5.2240    5.9270 H   0  0  0  0  0  0  0  0  0  0  0  0
    1.0760    4.7340    6.6590 H   0  0  0  0  0  0  0  0  0  0  0  0
    0.6580    3.4070    8.7260 H   0  0  0  0  0  0  0  0  0  0  0  0
    7.4140    3.8910    5.9760 H   0  0  0  0  0  0  0  0  0  0  0  0
    6.3830    2.5470    6.6260 H   0  0  0  0  0  0  0  0  0  0  0  0
    5.7820    3.5640    5.2620 H   0  0  0  0  0  0  0  0  0  0  0  0
  1  5  1  0  0  0  0
  1 16  1  0  0  0  0
  1 49  1  0  0  0  0
  2  5  2  0  0  0  0
  3  5  1  0  0  0  0
  3 50  1  0  0  0  0
  3 51  1  0  0  0  0
  3 52  1  0  0  0  0
  4 17  2  0  0  0  0
  6 17  1  0  0  0  0
  6 18  1  0  0  0  0
  6 53  1  0  0  0  0
  7 10  2  0  0  0  0
  7 15  1  0  0  0  0
  7 35  1  0  0  0  0
  8 31  1  0  0  0  0
  8 32  1  0  0  0  0
  8 54  1  0  0  0  0
  9 30  1  0  0  0  0
  9 55  1  0  0  0  0
 10 12  1  0  0  0  0
 10 56  1  0  0  0  0
 11 32  2  0  0  0  0
 12 13  2  0  0  0  0
 12 57  1  0  0  0  0
 13 14  1  0  0  0  0
 13 58  1  0  0  0  0
 14 15  2  0  0  0  0
 14 59  1  0  0  0  0
 15 60  1  0  0  0  0
 16 17  1  0  0  0  0
 16 19  1  0  0  0  0
 16 61  1  1  0  0  0
 18 28  1  0  0  0  0
 18 29  1  0  0  0  0
 18 62  1  6  0  0  0
 19 20  1  0  0  0  0
 19 21  1  0  0  0  0
 19 63  1  0  0  0  0
 20 64  1  0  0  0  0
 20 65  1  0  0  0  0
 20 66  1  0  0  0  0
 21 67  1  0  0  0  0
 21 68  1  0  0  0  0
 21 69  1  0  0  0  0
 22 23  2  0  0  0  0
 22 27  1  0  0  0  0
 22 70  1  0  0  0  0
 23 24  1  0  0  0  0
 23 71  1  0  0  0  0
 24 25  2  0  0  0  0
 24 72  1  0  0  0  0
 25 26  1  0  0  0  0
 25 73  1  0  0  0  0
 26 27  2  0  0  0  0
 26 28  1  0  0  0  0
 27 74  1  0  0  0  0
 28 75  1  0  0  0  0
 28 76  1  0  0  0  0
 29 30  1  0  0  0  0
 29 77  1  0  0  0  0
 29 78  1  0  0  0  0
 30 31  1  0  0  0  0
 30 79  1  1  0  0  0
 31 35  1  0  0  0  0
 31 80  1  6  0  0  0
 32 33  1  0  0  0  0
 33 34  1  0  0  0  0
 33 39  1  0  0  0  0
 33 81  1  6  0  0  0
 34 36  1  0  0  0  0
 35 82  1  0  0  0  0
 35 83  1  0  0  0  0
 36 37  2  0  0  0  0
 36 38  1  0  0  0  0
 38 39  1  0  0  0  0
 38 40  1  0  0  0  0
 39 84  1  0  0  0  0
 39 85  1  0  0  0  0
 40 41  2  0  0  0  0
 40 45  1  0  0  0  0
 41 42  1  0  0  0  0
 41 86  1  0  0  0  0
 42 43  2  0  0  0  0
 42 46  1  0  0  0  0
 43 44  1  0  0  0  0
 43 87  1  0  0  0  0
 44 45  2  0  0  0  0
 44 88  1  0  0  0  0
 45 89  1  0  0  0  0
 46 47  2  0  0  0  0
 46 48  1  0  0  0  0
 48 90  1  0  0  0  0
 48 91  1  0  0  0  0
 48 92  1  0  0  0  0
M  END
>  <charge>
0

>  <KI_NM>
0.98

>  <number_of_rotatable_bonds>
18

>  <lm5_entropy_jk>
45.88404741205561

>  <ligand_crystal_conformation>
A

$$$$
