5QCP
 OpenBabel11252210453D

 85 88  0  0  1  0  0  0  0  0999 V2000
   30.6760    5.9240   15.9750 N   0  0  0  0  0  0  0  0  0  0  0  0
   31.8390    6.0150   15.0950 C   0  0  1  0  0  0  0  0  0  0  0  0
   32.9120    6.8710   15.8000 C   0  0  0  0  0  0  0  0  0  0  0  0
   32.3910    8.1960   16.3030 C   0  0  0  0  0  0  0  0  0  0  0  0
   32.2000    8.3950   17.6670 C   0  0  0  0  0  0  0  0  0  0  0  0
   31.7640    9.6340   18.1480 C   0  0  0  0  0  0  0  0  0  0  0  0
   31.4460   10.6440   17.2490 C   0  0  0  0  0  0  0  0  0  0  0  0
   31.6000   10.4490   15.8730 C   0  0  0  0  0  0  0  0  0  0  0  0
   32.0940    9.2230   15.4080 C   0  0  0  0  0  0  0  0  0  0  0  0
   31.5760    9.9000   19.4880 O   0  0  0  0  0  0  0  0  0  0  0  0
   32.0110    9.0770   20.5870 C   0  0  0  0  0  0  0  0  0  0  0  0
   30.7670    8.6970   21.4300 C   0  0  0  0  0  0  0  0  0  0  0  0
   29.6380    7.9930   20.6180 C   0  0  0  0  0  0  0  0  0  0  0  0
   28.7550    9.0170   19.8600 C   0  0  0  0  0  0  0  0  0  0  0  0
   27.5440    8.3490   19.4700 O   0  0  0  0  0  0  0  0  0  0  0  0
   27.4660    7.3710   18.5120 C   0  0  0  0  0  0  0  0  0  0  0  0
   28.4790    7.1240   17.5870 C   0  0  0  0  0  0  0  0  0  0  0  0
   28.3190    6.1320   16.5990 C   0  0  0  0  0  0  0  0  0  0  0  0
   27.1300    5.3780   16.6080 C   0  0  0  0  0  0  0  0  0  0  0  0
   26.1370    5.6180   17.5510 C   0  0  0  0  0  0  0  0  0  0  0  0
   26.3030    6.6380   18.4780 C   0  0  0  0  0  0  0  0  0  0  0  0
   25.0000    4.8360   17.5320 O   0  0  0  0  0  0  0  0  0  0  0  0
   23.8740    5.0480   18.4450 C   0  0  0  0  0  0  0  0  0  0  0  0
   24.2090    4.7770   19.9060 C   0  0  0  0  0  0  0  0  0  0  0  0
   25.1380    4.0900   20.2830 O   0  0  0  0  0  0  0  0  0  0  0  0
   23.3600    5.4970   20.8930 C   0  0  0  0  0  0  0  0  0  0  0  0
   29.3770    5.9170   15.5310 C   0  0  0  0  0  0  0  0  0  0  0  0
   29.1050    5.7700   14.3460 O   0  0  0  0  0  0  0  0  0  0  0  0
   32.3490    4.6000   14.7080 C   0  0  2  0  0  0  0  0  0  0  0  0
   33.4990    4.6750   13.8860 O   0  0  0  0  0  0  0  0  0  0  0  0
   31.3110    3.8390   13.8640 C   0  0  0  0  0  0  0  0  0  0  0  0
   31.7240    2.4120   13.4610 N   0  3  0  0  0  0  0  0  0  0  0  0
   30.7050    1.9020   12.4130 C   0  0  0  0  0  0  0  0  0  0  0  0
   30.7370    2.6320   11.0820 C   0  0  0  0  0  0  0  0  0  0  0  0
   31.9350    3.1270   10.5500 C   0  0  0  0  0  0  0  0  0  0  0  0
   31.9700    3.7700    9.3040 C   0  0  0  0  0  0  0  0  0  0  0  0
   30.7720    3.9250    8.5880 C   0  0  0  0  0  0  0  0  0  0  0  0
   29.5610    3.4390    9.1110 C   0  0  0  0  0  0  0  0  0  0  0  0
   29.5490    2.7900   10.3570 C   0  0  0  0  0  0  0  0  0  0  0  0
   33.2950    4.3130    8.7540 C   0  0  0  0  0  0  0  0  0  0  0  0
   33.8670    5.4090    9.6630 C   0  0  0  0  0  0  0  0  0  0  0  0
   34.3830    3.2270    8.6290 C   0  0  0  0  0  0  0  0  0  0  0  0
   30.8030    6.0440   16.9790 H   0  0  0  0  0  0  0  0  0  0  0  0
   31.5340    6.5400   14.1780 H   0  0  0  0  0  0  0  0  0  0  0  0
   33.7300    7.0810   15.0990 H   0  0  0  0  0  0  0  0  0  0  0  0
   33.3740    6.3160   16.6220 H   0  0  0  0  0  0  0  0  0  0  0  0
   32.3890    7.5800   18.3390 H   0  0  0  0  0  0  0  0  0  0  0  0
   31.0900   11.5930   17.6370 H   0  0  0  0  0  0  0  0  0  0  0  0
   31.3450   11.2450   15.1780 H   0  0  0  0  0  0  0  0  0  0  0  0
   32.2490    9.0740   14.3460 H   0  0  0  0  0  0  0  0  0  0  0  0
   32.5400    8.1770   20.2550 H   0  0  0  0  0  0  0  0  0  0  0  0
   32.7220    9.6540   21.1960 H   0  0  0  0  0  0  0  0  0  0  0  0
   30.3710    9.6060   21.9070 H   0  0  0  0  0  0  0  0  0  0  0  0
   31.0800    8.0330   22.2500 H   0  0  0  0  0  0  0  0  0  0  0  0
   30.0630    7.2660   19.9100 H   0  0  0  0  0  0  0  0  0  0  0  0
   28.9930    7.4180   21.3010 H   0  0  0  0  0  0  0  0  0  0  0  0
   28.5090    9.8610   20.5230 H   0  0  0  0  0  0  0  0  0  0  0  0
   29.2740    9.4470   18.9920 H   0  0  0  0  0  0  0  0  0  0  0  0
   29.3790    7.7310   17.5980 H   0  0  0  0  0  0  0  0  0  0  0  0
   26.9730    4.5920   15.8790 H   0  0  0  0  0  0  0  0  0  0  0  0
   25.5470    6.8880   19.2040 H   0  0  0  0  0  0  0  0  0  0  0  0
   23.0360    4.3880   18.1980 H   0  0  0  0  0  0  0  0  0  0  0  0
   23.4950    6.0740   18.3730 H   0  0  0  0  0  0  0  0  0  0  0  0
   32.5670    4.0780   15.6510 H   0  0  0  0  0  0  0  0  0  0  0  0
   31.1480    4.4050   12.9380 H   0  0  0  0  0  0  0  0  0  0  0  0
   30.3520    3.8210   14.3980 H   0  0  0  0  0  0  0  0  0  0  0  0
   32.6900    2.4350   13.0600 H   0  0  0  0  0  0  0  0  0  0  0  0
   31.7450    1.7860   14.2930 H   0  0  0  0  0  0  0  0  0  0  0  0
   30.8750    0.8350   12.2160 H   0  0  0  0  0  0  0  0  0  0  0  0
   29.6930    1.9710   12.8320 H   0  0  0  0  0  0  0  0  0  0  0  0
   32.8610    3.0460   11.0950 H   0  0  0  0  0  0  0  0  0  0  0  0
   30.7810    4.4400    7.6300 H   0  0  0  0  0  0  0  0  0  0  0  0
   28.6340    3.5640    8.5490 H   0  0  0  0  0  0  0  0  0  0  0  0
   28.6090    2.4100   10.7540 H   0  0  0  0  0  0  0  0  0  0  0  0
   33.1070    4.7510    7.7580 H   0  0  0  0  0  0  0  0  0  0  0  0
   34.2790    4.9970   14.4230 H   0  0  0  0  0  0  0  0  0  0  0  0
   34.0490    2.4160    7.9700 H   0  0  0  0  0  0  0  0  0  0  0  0
   35.2980    3.6380    8.1810 H   0  0  0  0  0  0  0  0  0  0  0  0
   34.6450    2.7940    9.6010 H   0  0  0  0  0  0  0  0  0  0  0  0
   33.2140    6.2900    9.6410 H   0  0  0  0  0  0  0  0  0  0  0  0
   34.8600    5.7320    9.3320 H   0  0  0  0  0  0  0  0  0  0  0  0
   33.9240    5.0850   10.7050 H   0  0  0  0  0  0  0  0  0  0  0  0
   23.6120    5.1620   21.9030 H   0  0  0  0  0  0  0  0  0  0  0  0
   22.3010    5.2940   20.7010 H   0  0  0  0  0  0  0  0  0  0  0  0
   23.5340    6.5770   20.8240 H   0  0  0  0  0  0  0  0  0  0  0  0
  1  2  1  0  0  0  0
  1 27  1  0  0  0  0
  2  3  1  0  0  0  0
  2 29  1  0  0  0  0
  2 44  1  6  0  0  0
  3  4  1  0  0  0  0
  4  5  2  0  0  0  0
  4  9  1  0  0  0  0
  5  6  1  0  0  0  0
  6  7  2  0  0  0  0
  6 10  1  0  0  0  0
  7  8  1  0  0  0  0
  8  9  2  0  0  0  0
 10 11  1  0  0  0  0
 11 12  1  0  0  0  0
 12 13  1  0  0  0  0
 13 14  1  0  0  0  0
 14 15  1  0  0  0  0
 15 16  1  0  0  0  0
 16 17  2  0  0  0  0
 16 21  1  0  0  0  0
 17 18  1  0  0  0  0
 18 19  2  0  0  0  0
 18 27  1  0  0  0  0
 19 20  1  0  0  0  0
 20 21  2  0  0  0  0
 20 22  1  0  0  0  0
 22 23  1  0  0  0  0
 23 24  1  0  0  0  0
 24 25  2  0  0  0  0
 24 26  1  0  0  0  0
 27 28  2  0  0  0  0
 29 30  1  0  0  0  0
 29 31  1  0  0  0  0
 29 64  1  1  0  0  0
 31 32  1  0  0  0  0
 32 33  1  0  0  0  0
 33 34  1  0  0  0  0
 34 35  2  0  0  0  0
 34 39  1  0  0  0  0
 35 36  1  0  0  0  0
 36 37  2  0  0  0  0
 36 40  1  0  0  0  0
 37 38  1  0  0  0  0
 38 39  2  0  0  0  0
 40 41  1  0  0  0  0
 40 42  1  0  0  0  0
 43  1  1  0  0  0  0
 45  3  1  0  0  0  0
 46  3  1  0  0  0  0
 47  5  1  0  0  0  0
 48  7  1  0  0  0  0
 49  8  1  0  0  0  0
 50  9  1  0  0  0  0
 51 11  1  0  0  0  0
 52 11  1  0  0  0  0
 53 12  1  0  0  0  0
 54 12  1  0  0  0  0
 55 13  1  0  0  0  0
 56 13  1  0  0  0  0
 57 14  1  0  0  0  0
 58 14  1  0  0  0  0
 59 17  1  0  0  0  0
 60 19  1  0  0  0  0
 61 21  1  0  0  0  0
 62 23  1  0  0  0  0
 63 23  1  0  0  0  0
 65 31  1  0  0  0  0
 66 31  1  0  0  0  0
 67 32  1  0  0  0  0
 68 32  1  0  0  0  0
 69 33  1  0  0  0  0
 70 33  1  0  0  0  0
 71 35  1  0  0  0  0
 72 37  1  0  0  0  0
 73 38  1  0  0  0  0
 74 39  1  0  0  0  0
 75 40  1  0  0  0  0
 76 30  1  0  0  0  0
 77 42  1  0  0  0  0
 78 42  1  0  0  0  0
 79 42  1  0  0  0  0
 80 41  1  0  0  0  0
 81 41  1  0  0  0  0
 82 41  1  0  0  0  0
 83 26  1  0  0  0  0
 84 26  1  0  0  0  0
 85 26  1  0  0  0  0
M  CHG  1  32   1
M  END
>  <IC50_NM>
34

>  <number_of_rotatable_bonds>
9

>  <lm5_entropy_jk>
41.486223211327754

>  <charge>
1

>  <old_name>
BACE_16

>  <xray_resolution>
2.45

$$$$
