1M2R
 OpenBabel11252210453D

 30 32  0  0  1  0  0  0  0  0999 V2000
   20.8210    7.8730   23.0450 C   0  0  0  0  0  0  0  0  0  0  0  0
   19.9790    8.7960   23.5570 O   0  0  0  0  0  0  0  0  0  0  0  0
   21.2920    7.8670   21.7310 C   0  0  0  0  0  0  0  0  0  0  0  0
   22.1770    6.8320   21.3150 C   0  0  0  0  0  0  0  0  0  0  0  0
   22.5340    5.8340   22.2250 C   0  0  0  0  0  0  0  0  0  0  0  0
   23.3450    4.7960   21.9240 O   0  0  0  0  0  0  0  0  0  0  0  0
   22.0490    5.8520   23.5770 C   0  0  0  0  0  0  0  0  0  0  0  0
   21.2150    6.8550   23.9810 C   0  0  0  0  0  0  0  0  0  0  0  0
   22.7080    6.8240   19.9410 C   0  0  0  0  0  0  0  0  0  0  0  0
   23.4290    5.8660   19.6020 O   0  0  0  0  0  0  0  0  0  0  0  0
   22.4160    7.9370   19.0390 C   0  0  0  0  0  0  0  0  0  0  0  0
   21.4430    8.9270   19.4210 C   0  0  0  0  0  0  0  0  0  0  0  0
   20.8630    8.8960   20.7710 C   0  0  0  0  0  0  0  0  0  0  0  0
   20.0400    9.7430   21.1540 O   0  0  0  0  0  0  0  0  0  0  0  0
   21.1150    9.9610   18.5310 C   0  0  0  0  0  0  0  0  0  0  0  0
   20.0550   10.8500   18.7250 N   0  0  0  0  0  0  0  0  0  0  0  0
   21.8570   10.1010   17.2990 C   0  0  0  0  0  0  0  0  0  0  0  0
   22.8100    9.1990   16.9530 C   0  0  0  0  0  0  0  0  0  0  0  0
   23.0930    8.0650   17.8090 C   0  0  0  0  0  0  0  0  0  0  0  0
   24.0540    7.1780   17.3740 N   0  0  0  0  0  0  0  0  0  0  0  0
   21.6310   10.9530   16.6530 H   0  0  0  0  0  0  0  0  0  0  0  0
   23.3770    9.3210   16.0230 H   0  0  0  0  0  0  0  0  0  0  0  0
   22.3550    5.0520   24.2630 H   0  0  0  0  0  0  0  0  0  0  0  0
   20.8320    6.9010   25.0090 H   0  0  0  0  0  0  0  0  0  0  0  0
   24.5160    7.3440   16.4810 H   0  0  0  0  0  0  0  0  0  0  0  0
   19.6520    9.4870   22.8410 H   0  0  0  0  0  0  0  0  0  0  0  0
   23.6450    4.8320   20.9190 H   0  0  0  0  0  0  0  0  0  0  0  0
   19.6020   10.8450   19.6490 H   0  0  0  0  0  0  0  0  0  0  0  0
   24.2690    6.3240   17.8990 H   0  0  0  0  0  0  0  0  0  0  0  0
   20.1700   11.7940   18.2990 H   0  0  0  0  0  0  0  0  0  0  0  0
  1  2  1  0  0  0  0
  1  3  2  0  0  0  0
  1  8  1  0  0  0  0
  2 26  1  0  0  0  0
  3  4  1  0  0  0  0
  3 13  1  0  0  0  0
  4  5  2  0  0  0  0
  4  9  1  0  0  0  0
  5  6  1  0  0  0  0
  5  7  1  0  0  0  0
  6 27  1  0  0  0  0
  7  8  2  0  0  0  0
  7 23  1  0  0  0  0
  8 24  1  0  0  0  0
  9 10  2  0  0  0  0
  9 11  1  0  0  0  0
 11 12  2  0  0  0  0
 11 19  1  0  0  0  0
 12 13  1  0  0  0  0
 12 15  1  0  0  0  0
 13 14  2  0  0  0  0
 15 16  1  0  0  0  0
 15 17  2  0  0  0  0
 16 28  1  0  0  0  0
 16 30  1  0  0  0  0
 17 18  1  0  0  0  0
 17 21  1  0  0  0  0
 18 19  2  0  0  0  0
 18 22  1  0  0  0  0
 19 20  1  0  0  0  0
 20 25  1  0  0  0  0
 20 29  1  0  0  0  0
M  END
>  <Ki_NM>
350

>  <charge>
0

>  <number_of_rotatable_bonds>
0

>  <lm5_entropy_jk>
7.1054

$$$$
