5NY3
 OpenBabel11252210453D

 38 39  0  0  0  0  0  0  0  0999 V2000
   -3.5630    7.1670   13.1240 C   0  0  0  0  0  0  0  0  0  0  0  0
   -5.0050    3.8510   15.5040 C   0  0  0  0  0  0  0  0  0  0  0  0
   -5.4260    1.0380   15.9140 N   0  5  0  0  0  0  0  0  0  0  0  0
   -4.9020    2.7590   17.8390 O   0  0  0  0  0  0  0  0  0  0  0  0
   -3.8570    3.6990   14.7330 C   0  0  0  0  0  0  0  0  0  0  0  0
   -7.0690    2.6730   16.5020 O   0  0  0  0  0  0  0  0  0  0  0  0
   -3.3830    4.7510   13.9360 C   0  0  0  0  0  0  0  0  0  0  0  0
   -4.0490    5.9800   13.9140 C   0  0  0  0  0  0  0  0  0  0  0  0
   -5.2310    6.1180   14.6660 C   0  0  0  0  0  0  0  0  0  0  0  0
   -5.6980    5.0640   15.4550 C   0  0  0  0  0  0  0  0  0  0  0  0
   -2.1010    7.0950   12.6500 C   0  0  0  0  0  0  0  0  0  0  0  0
   -1.6410    8.3930   12.0680 N   0  0  0  0  0  0  0  0  0  0  0  0
   -1.3110    9.4640   12.9220 C   0  0  0  0  0  0  0  0  0  0  0  0
   -1.2370   10.7440   12.2750 N   0  0  0  0  0  0  0  0  0  0  0  0
   -1.0020    9.3340   14.0950 O   0  0  0  0  0  0  0  0  0  0  0  0
   -1.2760   14.3130   13.3290 C   0  0  0  0  0  0  0  0  0  0  0  0
   -1.5630   13.1380   12.6340 C   0  0  0  0  0  0  0  0  0  0  0  0
   -0.8980   11.9430   12.9710 C   0  0  0  0  0  0  0  0  0  0  0  0
   -0.3370   14.2750   14.3610 C   0  0  0  0  0  0  0  0  0  0  0  0
    0.1090   11.9470   13.9600 C   0  0  0  0  0  0  0  0  0  0  0  0
    0.3820   13.1150   14.6680 C   0  0  0  0  0  0  0  0  0  0  0  0
   -0.0940   15.6910   15.3200 Cl  0  0  0  0  0  0  0  0  0  0  0  0
   -5.5990    2.5560   16.5650 S   0  0  0  0  0  0  0  0  0  0  0  0
   -2.0620    8.6080   11.1520 H   0  0  0  0  0  0  0  0  0  0  0  0
   -4.2230    7.2940   12.2250 H   0  0  0  0  0  0  0  0  0  0  0  0
   -3.6740    8.0840   13.7570 H   0  0  0  0  0  0  0  0  0  0  0  0
   -5.7760    7.0610   14.6360 H   0  0  0  0  0  0  0  0  0  0  0  0
   -6.6120    5.2260   16.0380 H   0  0  0  0  0  0  0  0  0  0  0  0
   -1.6780   10.8710   11.3490 H   0  0  0  0  0  0  0  0  0  0  0  0
   -1.7840   15.2430   13.0610 H   0  0  0  0  0  0  0  0  0  0  0  0
   -2.3070   13.1590   11.8310 H   0  0  0  0  0  0  0  0  0  0  0  0
   -4.4900    0.6330   16.2790 H   0  0  0  0  0  0  0  0  0  0  0  0
    0.6850   11.0400   14.1660 H   0  0  0  0  0  0  0  0  0  0  0  0
    1.1500   13.1270   15.4500 H   0  0  0  0  0  0  0  0  0  0  0  0
   -3.2910    2.7640   14.7140 H   0  0  0  0  0  0  0  0  0  0  0  0
   -2.4870    4.5970   13.3320 H   0  0  0  0  0  0  0  0  0  0  0  0
   -1.4190    6.8210   13.4970 H   0  0  0  0  0  0  0  0  0  0  0  0
   -1.9900    6.3390   11.8230 H   0  0  0  0  0  0  0  0  0  0  0  0
  1  8  1  0  0  0  0
  1 11  1  0  0  0  0
  2  5  2  0  0  0  0
  2 10  1  0  0  0  0
  2 23  1  0  0  0  0
  3 23  1  0  0  0  0
  4 23  2  0  0  0  0
  5  7  1  0  0  0  0
  6 23  2  0  0  0  0
  7  8  2  0  0  0  0
  8  9  1  0  0  0  0
  9 10  2  0  0  0  0
 11 12  1  0  0  0  0
 12 13  1  0  0  0  0
 13 14  1  0  0  0  0
 13 15  2  0  0  0  0
 14 18  1  0  0  0  0
 16 17  2  0  0  0  0
 16 19  1  0  0  0  0
 17 18  1  0  0  0  0
 18 20  2  0  0  0  0
 19 21  2  0  0  0  0
 20 21  1  0  0  0  0
 22 19  1  0  0  0  0
 24 12  1  0  0  0  0
 25  1  1  0  0  0  0
 26  1  1  0  0  0  0
 27  9  1  0  0  0  0
 28 10  1  0  0  0  0
 29 14  1  0  0  0  0
 30 16  1  0  0  0  0
 31 17  1  0  0  0  0
 32  3  1  0  0  0  0
 33 20  1  0  0  0  0
 34 21  1  0  0  0  0
 35  5  1  0  0  0  0
 36  7  1  0  0  0  0
 37 11  1  0  0  0  0
 38 11  1  0  0  0  0
M  CHG  1   3  -1
M  END
>  <deltaG_kcalmol>
-10.2

>  <number_of_rotatable_bonds>
7

>  <charge>
-1

>  <lm5_entropy_jk>
27.943820470677032

$$$$
