3F18
 OpenBabel11252210453D

 32 32  0  0  0  0  0  0  0  0999 V2000
    5.6820   25.6200    4.6030 C   0  0  0  0  0  0  0  0  0  0  0  0
    8.8170   24.0020    0.9870 N   0  0  0  0  0  0  0  0  0  0  0  0
    6.1020   28.4880    0.4950 O   0  0  0  0  0  0  0  0  0  0  0  0
    8.0740   26.7350    3.8860 S   0  0  0  0  0  0  0  0  0  0  0  0
    4.8900   24.5360    4.9900 C   0  0  0  0  0  0  0  0  0  0  0  0
    7.8310   27.2510    2.2350 N   0  0  0  0  0  0  0  0  0  0  0  0
    8.4770   22.6770    0.5130 O   0  0  0  0  0  0  0  0  0  0  0  0
    6.9890   25.3690    4.1520 C   0  0  0  0  0  0  0  0  0  0  0  0
    6.8100   24.8560    0.3590 O   0  0  0  0  0  0  0  0  0  0  0  0
    5.3890   23.2400    4.9280 C   0  0  0  0  0  0  0  0  0  0  0  0
    9.4700   26.2750    3.9700 O   0  0  0  0  0  0  0  0  0  0  0  0
    7.4980   24.0640    4.0600 C   0  0  0  0  0  0  0  0  0  0  0  0
    7.5840   27.8310    4.7220 O   0  0  0  0  0  0  0  0  0  0  0  0
    7.3150   29.2130    0.6450 C   0  0  0  0  0  0  0  0  0  0  0  0
    6.6730   23.0020    4.4410 C   0  0  0  0  0  0  0  0  0  0  0  0
    7.9510   28.7530    1.9790 C   0  0  0  0  0  0  0  0  0  0  0  0
    7.9420   25.0470    0.8060 C   0  0  0  0  0  0  0  0  0  0  0  0
    8.5090   26.4450    1.1040 C   0  0  0  0  0  0  0  0  0  0  0  0
    4.6390   22.2180    5.3800 F   0  0  0  0  0  0  0  0  0  0  0  0
    5.2870   26.6350    4.7010 H   0  0  0  0  0  0  0  0  0  0  0  0
    9.7930   24.1390    1.2720 H   0  0  0  0  0  0  0  0  0  0  0  0
    6.1730   27.8260    1.2200 H   0  0  0  0  0  0  0  0  0  0  0  0
    3.8800   24.6920    5.3590 H   0  0  0  0  0  0  0  0  0  0  0  0
    8.5580   22.0730    1.3130 H   0  0  0  0  0  0  0  0  0  0  0  0
    8.5230   23.8570    3.7320 H   0  0  0  0  0  0  0  0  0  0  0  0
    7.9990   29.0310   -0.1980 H   0  0  0  0  0  0  0  0  0  0  0  0
    7.1380   30.3020    0.6630 H   0  0  0  0  0  0  0  0  0  0  0  0
    7.0350   21.9800    4.3700 H   0  0  0  0  0  0  0  0  0  0  0  0
    7.4490   29.3320    2.7770 H   0  0  0  0  0  0  0  0  0  0  0  0
    9.0020   29.0850    2.0050 H   0  0  0  0  0  0  0  0  0  0  0  0
    8.4420   26.9530    0.1330 H   0  0  0  0  0  0  0  0  0  0  0  0
    9.5900   26.3380    1.2890 H   0  0  0  0  0  0  0  0  0  0  0  0
  1  8  2  0  0  0  0
  1  5  1  0  0  0  0
  1 20  1  0  0  0  0
  2  7  1  0  0  0  0
  2 17  1  0  0  0  0
  2 21  1  0  0  0  0
  3 14  1  0  0  0  0
  3 22  1  0  0  0  0
  4  6  1  0  0  0  0
  4 11  2  0  0  0  0
  4  8  1  0  0  0  0
  4 13  2  0  0  0  0
  5 10  2  0  0  0  0
  5 23  1  0  0  0  0
  6 18  1  0  0  0  0
  6 16  1  0  0  0  0
  7 24  1  0  0  0  0
  8 12  1  0  0  0  0
  9 17  2  0  0  0  0
 10 15  1  0  0  0  0
 10 19  1  0  0  0  0
 12 15  2  0  0  0  0
 12 25  1  0  0  0  0
 14 16  1  0  0  0  0
 14 26  1  0  0  0  0
 14 27  1  0  0  0  0
 15 28  1  0  0  0  0
 16 29  1  0  0  0  0
 16 30  1  0  0  0  0
 17 18  1  0  0  0  0
 18 31  1  0  0  0  0
 18 32  1  0  0  0  0
M  END
>  <lm5_entropy_jk>
21.516358747656277

>  <number_of_rotatable_bonds>
7

>  <deltaG_kcalmol>
-10.11

>  <charge>
0

$$$$
