3F18
 OpenBabel11252210453D

 32 32  0  0  0  0  0  0  0  0999 V2000
    5.6320   25.5080    4.1660 C   0  0  0  0  0  0  0  0  0  0  0  0
    8.8230   24.2120    0.7550 N   0  0  0  0  0  0  0  0  0  0  0  0
    5.9470   30.0020    1.4530 O   0  0  0  0  0  0  0  0  0  0  0  0
    8.0350   26.7300    3.7200 S   0  0  0  0  0  0  0  0  0  0  0  0
    4.8710   24.4210    4.6050 C   0  0  0  0  0  0  0  0  0  0  0  0
    7.7840   27.3590    2.1120 N   0  0  0  0  0  0  0  0  0  0  0  0
    8.6180   22.9250    0.1510 O   0  0  0  0  0  0  0  0  0  0  0  0
    6.9960   25.3150    3.9090 C   0  0  0  0  0  0  0  0  0  0  0  0
    6.7080   24.8740    0.2580 O   0  0  0  0  0  0  0  0  0  0  0  0
    5.4650   23.1770    4.7900 C   0  0  0  0  0  0  0  0  0  0  0  0
    9.4390   26.3090    3.8330 O   0  0  0  0  0  0  0  0  0  0  0  0
    7.5910   24.0450    4.0110 C   0  0  0  0  0  0  0  0  0  0  0  0
    7.4710   27.7350    4.6220 O   0  0  0  0  0  0  0  0  0  0  0  0
    7.1250   29.4860    0.8350 C   0  0  0  0  0  0  0  0  0  0  0  0
    6.8040   22.9810    4.4630 C   0  0  0  0  0  0  0  0  0  0  0  0
    8.0250   28.8490    1.9210 C   0  0  0  0  0  0  0  0  0  0  0  0
    7.8450   25.1670    0.6410 C   0  0  0  0  0  0  0  0  0  0  0  0
    8.3380   26.6020    0.8900 C   0  0  0  0  0  0  0  0  0  0  0  0
    4.7490   22.1700    5.3220 F   0  0  0  0  0  0  0  0  0  0  0  0
    5.1700   26.4910    4.0750 H   0  0  0  0  0  0  0  0  0  0  0  0
    9.7840   24.4350    1.0220 H   0  0  0  0  0  0  0  0  0  0  0  0
    5.4470   29.2230    1.8060 H   0  0  0  0  0  0  0  0  0  0  0  0
    3.8170   24.5370    4.8390 H   0  0  0  0  0  0  0  0  0  0  0  0
    8.6200   22.2800    0.9220 H   0  0  0  0  0  0  0  0  0  0  0  0
    8.6510   23.8750    3.7910 H   0  0  0  0  0  0  0  0  0  0  0  0
    6.8650   28.7560    0.0580 H   0  0  0  0  0  0  0  0  0  0  0  0
    7.6790   30.2980    0.3340 H   0  0  0  0  0  0  0  0  0  0  0  0
    7.2370   21.9910    4.5660 H   0  0  0  0  0  0  0  0  0  0  0  0
    7.8530   29.4220    2.8520 H   0  0  0  0  0  0  0  0  0  0  0  0
    9.0760   29.0450    1.6530 H   0  0  0  0  0  0  0  0  0  0  0  0
    8.1280   27.1180   -0.0560 H   0  0  0  0  0  0  0  0  0  0  0  0
    9.4370   26.5600    0.9280 H   0  0  0  0  0  0  0  0  0  0  0  0
  1  8  2  0  0  0  0
  1  5  1  0  0  0  0
  1 20  1  0  0  0  0
  2  7  1  0  0  0  0
  2 17  1  0  0  0  0
  2 21  1  0  0  0  0
  3 14  1  0  0  0  0
  3 22  1  0  0  0  0
  4  6  1  0  0  0  0
  4 11  2  0  0  0  0
  4  8  1  0  0  0  0
  4 13  2  0  0  0  0
  5 10  2  0  0  0  0
  5 23  1  0  0  0  0
  6 18  1  0  0  0  0
  6 16  1  0  0  0  0
  7 24  1  0  0  0  0
  8 12  1  0  0  0  0
  9 17  2  0  0  0  0
 10 15  1  0  0  0  0
 10 19  1  0  0  0  0
 12 15  2  0  0  0  0
 12 25  1  0  0  0  0
 14 16  1  0  0  0  0
 14 26  1  0  0  0  0
 14 27  1  0  0  0  0
 15 28  1  0  0  0  0
 16 29  1  0  0  0  0
 16 30  1  0  0  0  0
 17 18  1  0  0  0  0
 18 31  1  0  0  0  0
 18 32  1  0  0  0  0
M  END
>  <lm5_entropy_jk>
21.516358747656277

>  <number_of_rotatable_bonds>
7

>  <deltaG_kcalmol>
-10.11

>  <charge>
0

$$$$
