3F17
 OpenBabel11252210453D

 35 36  0  0  0  0  0  0  0  0999 V2000
    3.9200   23.1310    5.1950 C   0  0  0  0  0  0  0  0  0  0  0  0
    8.0520   27.1510    2.0170 N   0  0  0  0  0  0  0  0  0  0  0  0
    6.8320   24.8030    0.1350 O   0  0  0  0  0  0  0  0  0  0  0  0
    8.3950   26.7530    3.5810 S   0  0  0  0  0  0  0  0  0  0  0  0
    4.9970   23.9100    4.5180 C   0  0  0  0  0  0  0  0  0  0  0  0
    8.9330   24.0370    0.5490 N   0  0  0  0  0  0  0  0  0  0  0  0
    8.6420   22.7700   -0.0450 O   0  0  0  0  0  0  0  0  0  0  0  0
    4.2780   22.1750    6.1600 C   0  0  0  0  0  0  0  0  0  0  0  0
    8.1350   27.9750    4.3320 O   0  0  0  0  0  0  0  0  0  0  0  0
    2.5420   23.4500    5.0610 C   0  0  0  0  0  0  0  0  0  0  0  0
    9.6680   26.0390    3.6420 O   0  0  0  0  0  0  0  0  0  0  0  0
    4.7910   25.2780    4.3120 C   0  0  0  0  0  0  0  0  0  0  0  0
    3.3120   21.5690    6.9700 C   0  0  0  0  0  0  0  0  0  0  0  0
    1.5720   22.8410    5.8740 C   0  0  0  0  0  0  0  0  0  0  0  0
    6.2900   23.3930    4.2630 C   0  0  0  0  0  0  0  0  0  0  0  0
    1.9580   21.8990    6.8350 C   0  0  0  0  0  0  0  0  0  0  0  0
    5.8400   26.1400    4.0290 C   0  0  0  0  0  0  0  0  0  0  0  0
    7.3520   24.2300    3.8910 C   0  0  0  0  0  0  0  0  0  0  0  0
    8.5710   26.4420    0.7510 C   0  0  0  0  0  0  0  0  0  0  0  0
    7.1090   25.6160    3.8230 C   0  0  0  0  0  0  0  0  0  0  0  0
    8.0020   25.0360    0.4680 C   0  0  0  0  0  0  0  0  0  0  0  0
    7.1020   26.8450    2.2210 H   0  0  0  0  0  0  0  0  0  0  0  0
    9.8970   24.1950    0.8530 H   0  0  0  0  0  0  0  0  0  0  0  0
    8.6520   22.1240    0.7240 H   0  0  0  0  0  0  0  0  0  0  0  0
    5.3290   21.9710    6.3310 H   0  0  0  0  0  0  0  0  0  0  0  0
    2.2140   24.1800    4.3270 H   0  0  0  0  0  0  0  0  0  0  0  0
    3.8000   25.6710    4.4640 H   0  0  0  0  0  0  0  0  0  0  0  0
    3.6310   20.8720    7.7300 H   0  0  0  0  0  0  0  0  0  0  0  0
    0.5210   23.1020    5.7540 H   0  0  0  0  0  0  0  0  0  0  0  0
    6.4760   22.3280    4.3680 H   0  0  0  0  0  0  0  0  0  0  0  0
    1.2110   21.4330    7.4750 H   0  0  0  0  0  0  0  0  0  0  0  0
    5.6780   27.2160    4.0080 H   0  0  0  0  0  0  0  0  0  0  0  0
    8.3450   23.8000    3.7120 H   0  0  0  0  0  0  0  0  0  0  0  0
    8.3310   27.0210   -0.1560 H   0  0  0  0  0  0  0  0  0  0  0  0
    9.6720   26.3720    0.7450 H   0  0  0  0  0  0  0  0  0  0  0  0
  1  5  1  0  0  0  0
  1 10  2  0  0  0  0
  1  8  1  0  0  0  0
  2 19  1  0  0  0  0
  2  4  1  0  0  0  0
  2 22  1  0  0  0  0
  3 21  2  0  0  0  0
  4 11  2  0  0  0  0
  4 20  1  0  0  0  0
  4  9  2  0  0  0  0
  5 15  2  0  0  0  0
  5 12  1  0  0  0  0
  6  7  1  0  0  0  0
  6 21  1  0  0  0  0
  6 23  1  0  0  0  0
  7 24  1  0  0  0  0
  8 13  2  0  0  0  0
  8 25  1  0  0  0  0
 10 14  1  0  0  0  0
 10 26  1  0  0  0  0
 12 17  2  0  0  0  0
 12 27  1  0  0  0  0
 13 16  1  0  0  0  0
 13 28  1  0  0  0  0
 14 16  2  0  0  0  0
 14 29  1  0  0  0  0
 15 18  1  0  0  0  0
 15 30  1  0  0  0  0
 16 31  1  0  0  0  0
 17 20  1  0  0  0  0
 17 32  1  0  0  0  0
 18 20  2  0  0  0  0
 18 33  1  0  0  0  0
 19 21  1  0  0  0  0
 19 34  1  0  0  0  0
 19 35  1  0  0  0  0
M  END
>  <COMPND>
3f17.pdb

>  <AUTHOR>
GENERATED BY OPEN BABEL 2.3.1

>  <MASTER>
0    0    0    0    0    0    0    0   35    0   35    0

>  <lm5_entropy_jk>
21.752168152254768

>  <number_of_rotatable_bonds>
6

>  <deltaG_kcalmol>
-11.78

>  <charge>
0

$$$$
