3F17
 OpenBabel11252210453D

 35 36  0  0  0  0  0  0  0  0999 V2000
    3.2330   23.7920    5.8420 C   0  0  0  0  0  0  0  0  0  0  0  0
    7.6090   26.6920    2.3710 N   0  0  0  0  0  0  0  0  0  0  0  0
    6.9360   24.6340    0.2770 O   0  0  0  0  0  0  0  0  0  0  0  0
    7.9420   27.1710    3.9160 S   0  0  0  0  0  0  0  0  0  0  0  0
    4.4080   24.6210    5.3760 C   0  0  0  0  0  0  0  0  0  0  0  0
    8.9830   23.6980    0.6180 N   0  0  0  0  0  0  0  0  0  0  0  0
    8.6010   22.4130    0.0830 O   0  0  0  0  0  0  0  0  0  0  0  0
    3.4070   22.6630    6.6880 C   0  0  0  0  0  0  0  0  0  0  0  0
    7.6830   28.6120    3.9520 O   0  0  0  0  0  0  0  0  0  0  0  0
    1.8980   24.1210    5.4780 C   0  0  0  0  0  0  0  0  0  0  0  0
    9.2170   26.5150    4.2450 O   0  0  0  0  0  0  0  0  0  0  0  0
    4.2370   25.9610    4.9580 C   0  0  0  0  0  0  0  0  0  0  0  0
    2.3100   21.9130    7.1430 C   0  0  0  0  0  0  0  0  0  0  0  0
    0.8000   23.3870    5.9550 C   0  0  0  0  0  0  0  0  0  0  0  0
    5.7280   24.1100    5.3570 C   0  0  0  0  0  0  0  0  0  0  0  0
    1.0060   22.2810    6.7870 C   0  0  0  0  0  0  0  0  0  0  0  0
    5.3090   26.7640    4.5540 C   0  0  0  0  0  0  0  0  0  0  0  0
    6.8220   24.8870    4.9550 C   0  0  0  0  0  0  0  0  0  0  0  0
    8.6270   25.9780    1.4460 C   0  0  0  0  0  0  0  0  0  0  0  0
    6.6020   26.2170    4.5520 C   0  0  0  0  0  0  0  0  0  0  0  0
    8.0830   24.7310    0.7180 C   0  0  0  0  0  0  0  0  0  0  0  0
    7.0240   26.0370    2.8970 H   0  0  0  0  0  0  0  0  0  0  0  0
    9.9250   23.7620    1.0130 H   0  0  0  0  0  0  0  0  0  0  0  0
    8.6310   21.8010    0.8790 H   0  0  0  0  0  0  0  0  0  0  0  0
    4.4000   22.3710    7.0170 H   0  0  0  0  0  0  0  0  0  0  0  0
    1.6970   24.9480    4.8060 H   0  0  0  0  0  0  0  0  0  0  0  0
    3.2450   26.3940    4.9550 H   0  0  0  0  0  0  0  0  0  0  0  0
    2.4730   21.0460    7.7770 H   0  0  0  0  0  0  0  0  0  0  0  0
   -0.2110   23.6650    5.6580 H   0  0  0  0  0  0  0  0  0  0  0  0
    5.9090   23.0770    5.6310 H   0  0  0  0  0  0  0  0  0  0  0  0
    0.1540   21.7080    7.1500 H   0  0  0  0  0  0  0  0  0  0  0  0
    5.1140   27.7930    4.2330 H   0  0  0  0  0  0  0  0  0  0  0  0
    7.8220   24.4380    4.9400 H   0  0  0  0  0  0  0  0  0  0  0  0
    9.0110   26.6480    0.6560 H   0  0  0  0  0  0  0  0  0  0  0  0
    9.5230   25.6440    1.9990 H   0  0  0  0  0  0  0  0  0  0  0  0
  1  5  1  0  0  0  0
  1 10  2  0  0  0  0
  1  8  1  0  0  0  0
  2 19  1  0  0  0  0
  2  4  1  0  0  0  0
  2 22  1  0  0  0  0
  3 21  2  0  0  0  0
  4 11  2  0  0  0  0
  4 20  1  0  0  0  0
  4  9  2  0  0  0  0
  5 15  2  0  0  0  0
  5 12  1  0  0  0  0
  6  7  1  0  0  0  0
  6 21  1  0  0  0  0
  6 23  1  0  0  0  0
  7 24  1  0  0  0  0
  8 13  2  0  0  0  0
  8 25  1  0  0  0  0
 10 14  1  0  0  0  0
 10 26  1  0  0  0  0
 12 17  2  0  0  0  0
 12 27  1  0  0  0  0
 13 16  1  0  0  0  0
 13 28  1  0  0  0  0
 14 16  2  0  0  0  0
 14 29  1  0  0  0  0
 15 18  1  0  0  0  0
 15 30  1  0  0  0  0
 16 31  1  0  0  0  0
 17 20  1  0  0  0  0
 17 32  1  0  0  0  0
 18 20  2  0  0  0  0
 18 33  1  0  0  0  0
 19 21  1  0  0  0  0
 19 34  1  0  0  0  0
 19 35  1  0  0  0  0
M  END
>  <lm5_entropy_jk>
21.752168152254768

>  <number_of_rotatable_bonds>
6

>  <deltaG_kcalmol>
-11.78

>  <charge>
0

$$$$
