4XZI
 OpenBabel11252210453D

 34 35  0  0  0  0  0  0  0  0999 V2000
   16.5600  -12.7670   17.2390 C   0  0  0  0  0  0  0  0  0  0  0  0
   16.2270  -13.0750   18.5860 C   0  0  0  0  0  0  0  0  0  0  0  0
   17.5370  -13.5800   16.6060 C   0  0  0  0  0  0  0  0  0  0  0  0
   16.9920  -14.0060   19.3210 C   0  0  0  0  0  0  0  0  0  0  0  0
   18.2570  -14.5500   17.3270 C   0  0  0  0  0  0  0  0  0  0  0  0
   18.0260  -14.7280   18.7010 C   0  0  0  0  0  0  0  0  0  0  0  0
   15.7970  -11.6830   16.4280 C   0  0  0  0  0  0  0  0  0  0  0  0
   16.3800  -10.2740   16.4660 N   0  0  0  0  0  0  0  0  0  0  0  0
   17.2310   -9.9000   15.4460 C   0  0  0  0  0  0  0  0  0  0  0  0
   15.9430   -9.3820   17.4410 C   0  0  0  0  0  0  0  0  0  0  0  0
   17.6490   -8.5250   15.4510 C   0  0  0  0  0  0  0  0  0  0  0  0
   16.5230   -8.1110   17.4620 N   0  0  0  0  0  0  0  0  0  0  0  0
   17.3050   -7.6540   16.4320 C   0  0  0  0  0  0  0  0  0  0  0  0
   17.5910  -10.6440   14.5580 O   0  0  0  0  0  0  0  0  0  0  0  0
   16.3230   -7.1950   18.6570 C   0  0  0  0  0  0  0  0  0  0  0  0
   15.3780   -6.0280   18.4480 C   0  0  0  0  0  0  0  0  0  0  0  0
   14.9170   -5.5190   19.4600 O   0  5  0  0  0  0  0  0  0  0  0  0
   15.1280   -5.6770   17.3110 O   0  0  0  0  0  0  0  0  0  0  0  0
   15.0920   -9.6900   18.2540 O   0  0  0  0  0  0  0  0  0  0  0  0
   17.7390  -13.5030   15.2450 O   0  0  0  0  0  0  0  0  0  0  0  0
   17.0060  -14.3750   14.3440 C   0  0  0  0  0  0  0  0  0  0  0  0
   14.6190  -12.4090   19.4000 Br  0  0  0  0  0  0  0  0  0  0  0  0
   16.5890  -14.3330   21.1800 Br  0  0  0  0  0  0  0  0  0  0  0  0
   19.0530  -16.0170   19.7020 Br  0  0  0  0  0  0  0  0  0  0  0  0
   19.5480  -15.6480   16.4060 Br  0  0  0  0  0  0  0  0  0  0  0  0
   17.2740  -14.1730   13.2970 H   0  0  0  0  0  0  0  0  0  0  0  0
   14.7420  -11.6590   16.7360 H   0  0  0  0  0  0  0  0  0  0  0  0
   18.2860   -8.2440   14.6240 H   0  0  0  0  0  0  0  0  0  0  0  0
   17.5990   -6.6080   16.5040 H   0  0  0  0  0  0  0  0  0  0  0  0
   17.2730   -6.7770   19.0000 H   0  0  0  0  0  0  0  0  0  0  0  0
   15.9200  -14.2370   14.4420 H   0  0  0  0  0  0  0  0  0  0  0  0
   15.7690  -12.0210   15.3820 H   0  0  0  0  0  0  0  0  0  0  0  0
   15.9050   -7.7540   19.4950 H   0  0  0  0  0  0  0  0  0  0  0  0
   17.2260  -15.4330   14.5440 H   0  0  0  0  0  0  0  0  0  0  0  0
  1  2  2  0  0  0  0
  1  3  1  0  0  0  0
  1  7  1  0  0  0  0
  2  4  1  0  0  0  0
  2 22  1  0  0  0  0
  3  5  2  0  0  0  0
  3 20  1  0  0  0  0
  4  6  2  0  0  0  0
  4 23  1  0  0  0  0
  5  6  1  0  0  0  0
  5 25  1  0  0  0  0
  6 24  1  0  0  0  0
  7  8  1  0  0  0  0
  7 27  1  0  0  0  0
  7 32  1  0  0  0  0
  8  9  1  0  0  0  0
  8 10  1  0  0  0  0
  9 11  1  0  0  0  0
  9 14  2  0  0  0  0
 10 12  1  0  0  0  0
 10 19  2  0  0  0  0
 11 13  2  0  0  0  0
 11 28  1  0  0  0  0
 12 13  1  0  0  0  0
 12 15  1  0  0  0  0
 13 29  1  0  0  0  0
 15 16  1  0  0  0  0
 15 30  1  0  0  0  0
 15 33  1  0  0  0  0
 16 17  1  0  0  0  0
 16 18  2  0  0  0  0
 20 21  1  0  0  0  0
 21 26  1  0  0  0  0
 21 31  1  0  0  0  0
 21 34  1  0  0  0  0
M  CHG  1  17  -1
M  END
>  <deltaG_kcalmol>
-6.88

>  <charge>
-1

>  <number_of_rotatable_bonds>
5

>  <lm5_entropy_jk>
34.09880934168806

$$$$
