4XZI
 OpenBabel11252210453D

 34 35  0  0  0  0  0  0  0  0999 V2000
   16.6520  -10.6170   13.4950 C   0  0  0  0  0  0  0  0  0  0  0  0
   17.3700  -11.5170   14.3220 C   0  0  0  0  0  0  0  0  0  0  0  0
   16.7220  -10.7850   12.0860 C   0  0  0  0  0  0  0  0  0  0  0  0
   18.2360  -12.4740   13.7520 C   0  0  0  0  0  0  0  0  0  0  0  0
   17.5650  -11.7660   11.5230 C   0  0  0  0  0  0  0  0  0  0  0  0
   18.3510  -12.5860   12.3540 C   0  0  0  0  0  0  0  0  0  0  0  0
   15.7540   -9.5160   14.0980 C   0  0  0  0  0  0  0  0  0  0  0  0
   16.4800   -8.4630   14.9150 N   0  0  0  0  0  0  0  0  0  0  0  0
   17.3720   -7.6400   14.2650 C   0  0  0  0  0  0  0  0  0  0  0  0
   16.1420   -8.3090   16.2550 C   0  0  0  0  0  0  0  0  0  0  0  0
   18.0210   -6.6510   15.0760 C   0  0  0  0  0  0  0  0  0  0  0  0
   16.8340   -7.3380   16.9810 N   0  0  0  0  0  0  0  0  0  0  0  0
   17.7520   -6.5000   16.3960 C   0  0  0  0  0  0  0  0  0  0  0  0
   17.5930   -7.6940   13.0740 O   0  0  0  0  0  0  0  0  0  0  0  0
   16.4450   -7.0350   18.4140 C   0  0  0  0  0  0  0  0  0  0  0  0
   15.5350   -5.8350   18.5260 C   0  0  0  0  0  0  0  0  0  0  0  0
   15.1030   -5.5580   19.6290 O   0  5  0  0  0  0  0  0  0  0  0  0
   15.2400   -5.2380   17.5130 O   0  0  0  0  0  0  0  0  0  0  0  0
   15.2840   -9.0010   16.7830 O   0  0  0  0  0  0  0  0  0  0  0  0
   15.8570  -10.0900   11.2570 O   0  0  0  0  0  0  0  0  0  0  0  0
   16.2870   -8.9710   10.4470 C   0  0  0  0  0  0  0  0  0  0  0  0
   17.0970  -11.5360   16.2290 Br  0  0  0  0  0  0  0  0  0  0  0  0
   19.2540  -13.6510   14.8900 Br  0  0  0  0  0  0  0  0  0  0  0  0
   19.5350  -13.8940   11.5800 Br  0  0  0  0  0  0  0  0  0  0  0  0
   17.6290  -12.0010    9.6130 Br  0  0  0  0  0  0  0  0  0  0  0  0
   16.4480   -8.0800   11.0630 H   0  0  0  0  0  0  0  0  0  0  0  0
   14.9650   -9.9970   14.6920 H   0  0  0  0  0  0  0  0  0  0  0  0
   18.7170   -6.0180   14.5460 H   0  0  0  0  0  0  0  0  0  0  0  0
   18.1850   -5.7550   17.0610 H   0  0  0  0  0  0  0  0  0  0  0  0
   17.3150   -6.8400   19.0460 H   0  0  0  0  0  0  0  0  0  0  0  0
   15.5270   -8.7200    9.6950 H   0  0  0  0  0  0  0  0  0  0  0  0
   15.2200   -9.0180   13.2760 H   0  0  0  0  0  0  0  0  0  0  0  0
   15.8890   -7.8640   18.8610 H   0  0  0  0  0  0  0  0  0  0  0  0
   17.2290   -9.1870    9.9270 H   0  0  0  0  0  0  0  0  0  0  0  0
  1  2  2  0  0  0  0
  1  3  1  0  0  0  0
  1  7  1  0  0  0  0
  2  4  1  0  0  0  0
  2 22  1  0  0  0  0
  3  5  2  0  0  0  0
  3 20  1  0  0  0  0
  4  6  2  0  0  0  0
  4 23  1  0  0  0  0
  5  6  1  0  0  0  0
  5 25  1  0  0  0  0
  6 24  1  0  0  0  0
  7  8  1  0  0  0  0
  7 27  1  0  0  0  0
  7 32  1  0  0  0  0
  8  9  1  0  0  0  0
  8 10  1  0  0  0  0
  9 11  1  0  0  0  0
  9 14  2  0  0  0  0
 10 12  1  0  0  0  0
 10 19  2  0  0  0  0
 11 13  2  0  0  0  0
 11 28  1  0  0  0  0
 12 13  1  0  0  0  0
 12 15  1  0  0  0  0
 13 29  1  0  0  0  0
 15 16  1  0  0  0  0
 15 30  1  0  0  0  0
 15 33  1  0  0  0  0
 16 17  1  0  0  0  0
 16 18  2  0  0  0  0
 20 21  1  0  0  0  0
 21 26  1  0  0  0  0
 21 31  1  0  0  0  0
 21 34  1  0  0  0  0
M  CHG  1  17  -1
M  END
>  <deltaG_kcalmol>
-6.88

>  <charge>
-1

>  <number_of_rotatable_bonds>
5

>  <lm5_entropy_jk>
34.09880934168806

$$$$
