5NXG
 OpenBabel11252210453D

 32 33  0  0  0  0  0  0  0  0999 V2000
   -5.4930    1.0130   15.9780 N   0  5  0  0  0  0  0  0  0  0  0  0
   -5.0700    3.7790   15.5310 C   0  0  0  0  0  0  0  0  0  0  0  0
   -4.9690    2.7320   17.9060 O   0  0  0  0  0  0  0  0  0  0  0  0
   -5.8300    4.9270   15.3030 C   0  0  0  0  0  0  0  0  0  0  0  0
   -3.6340    6.7090   12.8330 N   0  0  0  0  0  0  0  0  0  0  0  0
   -7.1390    2.6680   16.5650 O   0  0  0  0  0  0  0  0  0  0  0  0
   -5.3990    5.9070   14.3990 C   0  0  0  0  0  0  0  0  0  0  0  0
   -0.9670   11.7280    9.7280 N   0  3  0  0  0  0  0  0  0  0  0  0
   -5.5590    7.7020   12.0450 O   0  0  0  0  0  0  0  0  0  0  0  0
   -4.1800    5.7240   13.7330 C   0  0  0  0  0  0  0  0  0  0  0  0
   -0.8860   12.8120   10.2890 O   0  5  0  0  0  0  0  0  0  0  0  0
   -4.3440    7.6870   12.1430 C   0  0  0  0  0  0  0  0  0  0  0  0
   -0.3840   11.4580    8.6870 O   0  0  0  0  0  0  0  0  0  0  0  0
   -3.4410    8.7290   11.5150 C   0  0  0  0  0  0  0  0  0  0  0  0
   -3.4880    8.9490   10.1350 C   0  0  0  0  0  0  0  0  0  0  0  0
   -2.6780    9.9250    9.5420 C   0  0  0  0  0  0  0  0  0  0  0  0
   -1.8210   10.6820   10.3490 C   0  0  0  0  0  0  0  0  0  0  0  0
   -1.7460   10.4780   11.7330 C   0  0  0  0  0  0  0  0  0  0  0  0
   -2.5580    9.4910   12.2980 C   0  0  0  0  0  0  0  0  0  0  0  0
   -3.4000    4.5810   13.9680 C   0  0  0  0  0  0  0  0  0  0  0  0
   -3.8490    3.6200   14.8750 C   0  0  0  0  0  0  0  0  0  0  0  0
   -2.4500    9.2290   13.9890 Cl  0  0  0  0  0  0  0  0  0  0  0  0
   -5.6740    2.5250   16.6380 S   0  0  0  0  0  0  0  0  0  0  0  0
   -2.6040    6.7010   12.7320 H   0  0  0  0  0  0  0  0  0  0  0  0
   -6.7710    5.1030   15.8400 H   0  0  0  0  0  0  0  0  0  0  0  0
   -5.9880    6.8100   14.2350 H   0  0  0  0  0  0  0  0  0  0  0  0
   -4.5620    0.6080   16.3580 H   0  0  0  0  0  0  0  0  0  0  0  0
   -4.1530    8.3580    9.4940 H   0  0  0  0  0  0  0  0  0  0  0  0
   -2.7210   10.0820    8.4590 H   0  0  0  0  0  0  0  0  0  0  0  0
   -1.0640   11.0650   12.3590 H   0  0  0  0  0  0  0  0  0  0  0  0
   -2.4480    4.4480   13.4490 H   0  0  0  0  0  0  0  0  0  0  0  0
   -3.2090    2.7510   15.0390 H   0  0  0  0  0  0  0  0  0  0  0  0
  1 23  1  0  0  0  0
  2  4  2  0  0  0  0
  2 21  1  0  0  0  0
  2 23  1  0  0  0  0
  3 23  2  0  0  0  0
  4  7  1  0  0  0  0
  5 10  1  0  0  0  0
  5 12  1  0  0  0  0
  6 23  2  0  0  0  0
  7 10  2  0  0  0  0
  8 11  1  0  0  0  0
  8 13  2  0  0  0  0
  8 17  1  0  0  0  0
  9 12  2  0  0  0  0
 10 20  1  0  0  0  0
 12 14  1  0  0  0  0
 14 15  2  0  0  0  0
 14 19  1  0  0  0  0
 15 16  1  0  0  0  0
 16 17  2  0  0  0  0
 17 18  1  0  0  0  0
 18 19  2  0  0  0  0
 20 21  2  0  0  0  0
 22 19  1  0  0  0  0
 24  5  1  0  0  0  0
 25  4  1  0  0  0  0
 26  7  1  0  0  0  0
 27  1  1  0  0  0  0
 28 15  1  0  0  0  0
 29 16  1  0  0  0  0
 30 18  1  0  0  0  0
 31 20  1  0  0  0  0
 32 21  1  0  0  0  0
M  CHG  3   1  -1   8   1  11  -1
M  END
>  <deltaG_kcalmol>
-11.7

>  <number_of_rotatable_bonds>
5

>  <charge>
-1

>  <lm5_entropy_jk>
22.88451973684482

$$$$
