3rni.pdb
 OpenBabel11252210453D

 39 41  0  0  0  0  0  0  0  0999 V2000
   65.7580  154.4310  -50.2210 N   0  0  0  0  0  0  0  0  0  0  0  0
   64.3140  154.8030  -48.3710 N   0  0  0  0  0  0  0  0  0  0  0  0
   67.3140  153.5730  -51.8480 N   0  0  0  0  0  0  0  0  0  0  0  0
   61.0790  157.8110  -45.8340 N   0  0  0  0  0  0  0  0  0  0  0  0
   67.3730  152.7670  -49.5450 C   0  0  0  0  0  0  0  0  0  0  0  0
   66.8620  153.5980  -50.5670 C   0  0  0  0  0  0  0  0  0  0  0  0
   65.3810  154.1540  -48.9480 C   0  0  0  0  0  0  0  0  0  0  0  0
   68.4180  151.7940  -49.6710 C   0  0  0  0  0  0  0  0  0  0  0  0
   63.7370  154.5680  -47.0780 C   0  0  0  0  0  0  0  0  0  0  0  0
   68.6100  150.8180  -48.5470 C   0  0  0  0  0  0  0  0  0  0  0  0
   62.9860  155.6350  -46.5300 C   0  0  0  0  0  0  0  0  0  0  0  0
   62.4280  155.5150  -45.2570 C   0  0  0  0  0  0  0  0  0  0  0  0
   62.5950  154.3310  -44.5310 C   0  0  0  0  0  0  0  0  0  0  0  0
   63.3000  153.2640  -45.0970 C   0  0  0  0  0  0  0  0  0  0  0  0
   63.8560  153.3600  -46.3740 C   0  0  0  0  0  0  0  0  0  0  0  0
   67.5320  150.0610  -48.0690 C   0  0  0  0  0  0  0  0  0  0  0  0
   67.7330  149.1240  -47.0520 C   0  0  0  0  0  0  0  0  0  0  0  0
   69.0140  148.9120  -46.5380 C   0  0  0  0  0  0  0  0  0  0  0  0
   70.0940  149.6520  -47.0290 C   0  0  0  0  0  0  0  0  0  0  0  0
   69.8940  150.6160  -48.0220 C   0  0  0  0  0  0  0  0  0  0  0  0
   69.1330  151.7220  -50.6660 O   0  0  0  0  0  0  0  0  0  0  0  0
   60.3790  156.3860  -43.7870 O   0  0  0  0  0  0  0  0  0  0  0  0
   62.5000  157.6380  -43.6930 O   0  0  0  0  0  0  0  0  0  0  0  0
   66.4370  152.9210  -48.1000 S   0  0  0  0  0  0  0  0  0  0  0  0
   61.5760  156.8480  -44.5190 S   0  0  0  0  0  0  0  0  0  0  0  0
   63.7120  155.3860  -49.0060 H   0  0  0  0  0  0  0  0  0  0  0  0
   66.9490  154.2210  -52.5720 H   0  0  0  0  0  0  0  0  0  0  0  0
   68.1440  153.0130  -52.0810 H   0  0  0  0  0  0  0  0  0  0  0  0
   60.9690  158.8270  -45.6950 H   0  0  0  0  0  0  0  0  0  0  0  0
   60.3180  157.4300  -46.4450 H   0  0  0  0  0  0  0  0  0  0  0  0
   62.8430  156.5440  -47.1280 H   0  0  0  0  0  0  0  0  0  0  0  0
   62.1780  154.2040  -43.5260 H   0  0  0  0  0  0  0  0  0  0  0  0
   63.4190  152.3340  -44.5320 H   0  0  0  0  0  0  0  0  0  0  0  0
   64.3440  152.4800  -46.7980 H   0  0  0  0  0  0  0  0  0  0  0  0
   66.5290  150.1740  -48.4800 H   0  0  0  0  0  0  0  0  0  0  0  0
   66.8900  148.5580  -46.6540 H   0  0  0  0  0  0  0  0  0  0  0  0
   69.1660  148.1630  -45.7560 H   0  0  0  0  0  0  0  0  0  0  0  0
   71.0870  149.4550  -46.6330 H   0  0  0  0  0  0  0  0  0  0  0  0
   70.7360  151.2090  -48.3870 H   0  0  0  0  0  0  0  0  0  0  0  0
  1  7  2  0  0  0  0
  2  9  1  0  0  0  0
  2 26  1  0  0  0  0
  3  6  1  0  0  0  0
  3 27  1  0  0  0  0
  3 28  1  0  0  0  0
  4 25  1  0  0  0  0
  4 29  1  0  0  0  0
  4 30  1  0  0  0  0
  5 24  1  0  0  0  0
  6  1  1  0  0  0  0
  6  5  2  0  0  0  0
  7  2  1  0  0  0  0
  7 24  1  0  0  0  0
  8  5  1  0  0  0  0
  8 10  1  0  0  0  0
  9 11  2  0  0  0  0
  9 15  1  0  0  0  0
 10 20  2  0  0  0  0
 10 16  1  0  0  0  0
 11 12  1  0  0  0  0
 11 31  1  0  0  0  0
 12 25  1  0  0  0  0
 12 13  2  0  0  0  0
 13 32  1  0  0  0  0
 14 13  1  0  0  0  0
 14 33  1  0  0  0  0
 15 14  2  0  0  0  0
 15 34  1  0  0  0  0
 16 17  2  0  0  0  0
 16 35  1  0  0  0  0
 17 18  1  0  0  0  0
 17 36  1  0  0  0  0
 18 37  1  0  0  0  0
 19 18  2  0  0  0  0
 19 38  1  0  0  0  0
 20 19  1  0  0  0  0
 20 39  1  0  0  0  0
 21  8  2  0  0  0  0
 25 22  2  0  0  0  0
 25 23  2  0  0  0  0
M  END
>  <lm5_entropy_jk>
22.397995528352578

>  <number_of_rotatable_bonds>
5

>  <IC50_NM>
6700

>  <charge>
0

$$$$
