4LBR
 OpenBabel11252210453D

 35 36  0  0  0  0  0  0  0  0999 V2000
   14.1160  -12.0770   18.6160 Cl  0  0  0  0  0  0  0  0  0  0  0  0
   17.8390   -5.9310   13.3360 C   0  0  0  0  0  0  0  0  0  0  0  0
   18.5170   -4.9990   12.5250 C   0  0  0  0  0  0  0  0  0  0  0  0
   16.4870   -6.1260   13.0050 C   0  0  0  0  0  0  0  0  0  0  0  0
   17.9390   -4.3090   11.4570 C   0  0  0  0  0  0  0  0  0  0  0  0
   15.8500   -5.4650   11.9410 C   0  0  0  0  0  0  0  0  0  0  0  0
   16.5950   -4.5580   11.2020 C   0  0  0  0  0  0  0  0  0  0  0  0
   18.5940   -6.6060   14.4640 C   0  0  0  0  0  0  0  0  0  0  0  0
   17.7900   -7.4930   15.3140 N   0  0  0  0  0  0  0  0  0  0  0  0
   17.7810   -8.8680   15.1110 C   0  0  0  0  0  0  0  0  0  0  0  0
   16.9800   -9.6940   16.0640 C   0  0  0  0  0  0  0  0  0  0  0  0
   16.5510   -9.2020   17.3300 C   0  0  0  0  0  0  0  0  0  0  0  0
   16.6240  -10.9980   15.7020 C   0  0  0  0  0  0  0  0  0  0  0  0
   15.6310   -9.9240   18.1120 C   0  0  0  0  0  0  0  0  0  0  0  0
   15.7760  -11.7670   16.5090 C   0  0  0  0  0  0  0  0  0  0  0  0
   15.2700  -11.1890   17.6690 C   0  0  0  0  0  0  0  0  0  0  0  0
   18.3910   -9.3840   14.1750 O   0  0  0  0  0  0  0  0  0  0  0  0
   17.1690   -8.0600   17.6870 O   0  0  0  0  0  0  0  0  0  0  0  0
   16.7260   -7.2350   18.8010 C   0  0  0  0  0  0  0  0  0  0  0  0
   15.7740   -6.1220   18.2260 C   0  0  0  0  0  0  0  0  0  0  0  0
   15.1500   -5.4950   19.1010 O   0  0  0  0  0  0  0  0  0  0  0  0
   15.7250   -5.9950   16.9900 O   0  5  0  0  0  0  0  0  0  0  0  0
   15.7340   -6.9530   13.7160 F   0  0  0  0  0  0  0  0  0  0  0  0
   19.7970   -4.7400   12.7920 F   0  0  0  0  0  0  0  0  0  0  0  0
   15.6070   -3.4260    9.7050 I   0  0  0  0  0  0  0  0  0  0  0  0
   14.7870   -5.6280   11.7180 H   0  0  0  0  0  0  0  0  0  0  0  0
   17.7060   -6.8290   19.1360 H   0  0  0  0  0  0  0  0  0  0  0  0
   18.4980   -3.5720   10.8750 H   0  0  0  0  0  0  0  0  0  0  0  0
   19.0240   -5.8030   15.1320 H   0  0  0  0  0  0  0  0  0  0  0  0
   17.2260   -7.0190   16.0640 H   0  0  0  0  0  0  0  0  0  0  0  0
   16.9870  -11.4360   14.7630 H   0  0  0  0  0  0  0  0  0  0  0  0
   15.2310   -9.5340   19.0440 H   0  0  0  0  0  0  0  0  0  0  0  0
   15.5110  -12.7850   16.2190 H   0  0  0  0  0  0  0  0  0  0  0  0
   16.2640   -7.8420   19.5930 H   0  0  0  0  0  0  0  0  0  0  0  0
   19.4480   -7.1960   14.0160 H   0  0  0  0  0  0  0  0  0  0  0  0
  1 16  1  0  0  0  0
  2  3  2  0  0  0  0
  2  4  1  0  0  0  0
  2  8  1  0  0  0  0
  3  5  1  0  0  0  0
  3 24  1  0  0  0  0
  4  6  2  0  0  0  0
  4 23  1  0  0  0  0
  5  7  2  0  0  0  0
  5 28  1  0  0  0  0
  6  7  1  0  0  0  0
  6 26  1  0  0  0  0
  7 25  1  0  0  0  0
  8  9  1  0  0  0  0
  8 29  1  0  0  0  0
  8 35  1  0  0  0  0
  9 10  1  0  0  0  0
  9 30  1  0  0  0  0
 10 11  1  0  0  0  0
 10 17  2  0  0  0  0
 11 12  2  0  0  0  0
 11 13  1  0  0  0  0
 12 14  1  0  0  0  0
 12 18  1  0  0  0  0
 13 15  2  0  0  0  0
 13 31  1  0  0  0  0
 14 16  2  0  0  0  0
 14 32  1  0  0  0  0
 15 16  1  0  0  0  0
 15 33  1  0  0  0  0
 18 19  1  0  0  0  0
 19 20  1  0  0  0  0
 19 27  1  0  0  0  0
 19 34  1  0  0  0  0
 20 21  2  0  0  0  0
 20 22  1  0  0  0  0
M  CHG  1  22  -1
M  END
>  <deltaG_kcalmol>
-9.56

>  <charge>
-1

>  <lm5_entropy_jk>
25.63780735381752

>  <number_of_rotatable_bonds>
7

$$$$
