47-09.pdb
 OpenBabel11252210453D

 80 81  0  0  1  0  0  0  0  0999 V2000
    8.2900   18.4390    8.9480 N   0  0  0  0  0  0  0  0  0  0  0  0
   11.2080   17.8640    7.5840 C   0  0  1  0  0  0  0  0  0  0  0  0
   12.1500   18.6430    6.8170 O   0  0  0  0  0  0  0  0  0  0  0  0
    9.8330   18.2720    7.0150 C   0  0  0  0  0  0  0  0  0  0  0  0
    4.7710   17.4910    9.6240 N   0  0  0  0  0  0  0  0  0  0  0  0
    5.6410   19.2770    8.4810 O   0  0  0  0  0  0  0  0  0  0  0  0
    8.6910   17.6910    7.8260 C   0  0  0  0  0  0  0  0  0  0  0  0
   11.6740   16.0010    5.9940 N   0  0  0  0  0  0  0  0  0  0  0  0
    8.1640   16.6200    7.5740 O   0  0  0  0  0  0  0  0  0  0  0  0
    7.2020   17.9670    9.8290 C   0  0  1  0  0  0  0  0  0  0  0  0
   10.3420   14.1190    6.0200 O   0  0  0  0  0  0  0  0  0  0  0  0
    7.3820   18.5170   11.2740 C   0  0  0  0  0  0  0  0  0  0  0  0
    6.6090   17.6640   12.2870 C   0  0  0  0  0  0  0  0  0  0  0  0
    7.0210   19.9990   11.3890 C   0  0  0  0  0  0  0  0  0  0  0  0
    5.8250   18.3200    9.2140 C   0  0  0  0  0  0  0  0  0  0  0  0
    3.4860   17.4360    8.8790 C   0  0  0  0  0  0  0  0  0  0  0  0
    3.4120   16.2190    7.9340 C   0  0  0  0  0  0  0  0  0  0  0  0
    4.3950   16.2790    6.7540 C   0  0  0  0  0  0  0  0  0  0  0  0
    3.9210   17.1960    5.6140 C   0  0  0  0  0  0  0  0  0  0  0  0
    5.0670   17.7810    4.7690 C   0  0  0  0  0  0  0  0  0  0  0  0
    6.0530   16.7200    4.2540 C   0  0  0  0  0  0  0  0  0  0  0  0
    6.9060   17.2380    3.0850 C   0  0  0  0  0  0  0  0  0  0  0  0
    7.9150   16.1920    2.5770 C   0  0  0  0  0  0  0  0  0  0  0  0
    9.1760   16.0980    3.4480 C   0  0  0  0  0  0  0  0  0  0  0  0
   10.0110   14.8540    3.1020 C   0  0  0  0  0  0  0  0  0  0  0  0
   11.3230   14.7770    3.9000 C   0  0  0  0  0  0  0  0  0  0  0  0
   11.5540   16.3410    7.4210 C   0  0  1  0  0  0  0  0  0  0  0  0
   11.0540   14.8880    5.3940 C   0  0  0  0  0  0  0  0  0  0  0  0
   12.8540   16.0280    8.2150 C   0  0  0  0  0  0  0  0  0  0  0  0
   13.3560   14.6220    8.0280 C   0  0  0  0  0  0  0  0  0  0  0  0
   12.6810   13.5350    8.6070 C   0  0  0  0  0  0  0  0  0  0  0  0
   13.1280   12.2280    8.4020 C   0  0  0  0  0  0  0  0  0  0  0  0
   14.2720   11.9870    7.6340 C   0  0  0  0  0  0  0  0  0  0  0  0
   14.9740   13.0660    7.0880 C   0  0  0  0  0  0  0  0  0  0  0  0
   14.5210   14.3740    7.2840 C   0  0  0  0  0  0  0  0  0  0  0  0
   15.0870   15.2030    6.8620 H   0  0  0  0  0  0  0  0  0  0  0  0
    8.6120   19.4110    9.0800 H   0  0  0  0  0  0  0  0  0  0  0  0
   11.2910   18.1550    8.6590 H   0  0  0  0  0  0  0  0  0  0  0  0
   12.7990   19.0980    7.4670 H   0  0  0  0  0  0  0  0  0  0  0  0
    9.7470   17.9080    5.9580 H   0  0  0  0  0  0  0  0  0  0  0  0
    5.0060   16.5960   10.0940 H   0  0  0  0  0  0  0  0  0  0  0  0
   12.4480   16.4850    5.5100 H   0  0  0  0  0  0  0  0  0  0  0  0
    7.2790   16.8470    9.9010 H   0  0  0  0  0  0  0  0  0  0  0  0
    8.4650   18.3820   11.5190 H   0  0  0  0  0  0  0  0  0  0  0  0
    6.8510   18.0020   13.3200 H   0  0  0  0  0  0  0  0  0  0  0  0
    7.6170   20.5980   10.6680 H   0  0  0  0  0  0  0  0  0  0  0  0
    3.3440   18.3870    8.3060 H   0  0  0  0  0  0  0  0  0  0  0  0
    2.3650   16.1480    7.5490 H   0  0  0  0  0  0  0  0  0  0  0  0
    4.5160   15.2460    6.3550 H   0  0  0  0  0  0  0  0  0  0  0  0
    3.3450   18.0530    6.0370 H   0  0  0  0  0  0  0  0  0  0  0  0
    5.6250   18.5250    5.3800 H   0  0  0  0  0  0  0  0  0  0  0  0
    5.4860   15.8270    3.9080 H   0  0  0  0  0  0  0  0  0  0  0  0
    7.4490   18.1590    3.3920 H   0  0  0  0  0  0  0  0  0  0  0  0
    8.2170   16.4710    1.5400 H   0  0  0  0  0  0  0  0  0  0  0  0
    8.8800   16.0610    4.5220 H   0  0  0  0  0  0  0  0  0  0  0  0
   10.2760   14.8840    2.0160 H   0  0  0  0  0  0  0  0  0  0  0  0
   12.0060   15.5870    3.5470 H   0  0  0  0  0  0  0  0  0  0  0  0
   10.7120   15.7510    7.8690 H   0  0  0  0  0  0  0  0  0  0  0  0
   12.6450   16.2140    9.2990 H   0  0  0  0  0  0  0  0  0  0  0  0
   11.8200   13.7170    9.2430 H   0  0  0  0  0  0  0  0  0  0  0  0
   12.5890   11.3930    8.8550 H   0  0  0  0  0  0  0  0  0  0  0  0
   14.6240   10.9660    7.4740 H   0  0  0  0  0  0  0  0  0  0  0  0
   15.8850   12.8920    6.5090 H   0  0  0  0  0  0  0  0  0  0  0  0
   13.6400   16.7600    7.9070 H   0  0  0  0  0  0  0  0  0  0  0  0
    9.7840   19.3870    6.9940 H   0  0  0  0  0  0  0  0  0  0  0  0
    6.8970   16.5940   12.1880 H   0  0  0  0  0  0  0  0  0  0  0  0
    7.2180   20.3630   12.4220 H   0  0  0  0  0  0  0  0  0  0  0  0
    2.6730   17.3480    9.6520 H   0  0  0  0  0  0  0  0  0  0  0  0
    3.6200   15.2940    8.5260 H   0  0  0  0  0  0  0  0  0  0  0  0
    5.3910   16.6220    7.1210 H   0  0  0  0  0  0  0  0  0  0  0  0
    3.2350   16.6190    4.9490 H   0  0  0  0  0  0  0  0  0  0  0  0
    4.6120   18.3130    3.8990 H   0  0  0  0  0  0  0  0  0  0  0  0
    6.7260   16.4220    5.0900 H   0  0  0  0  0  0  0  0  0  0  0  0
    6.2310   17.4940    2.2370 H   0  0  0  0  0  0  0  0  0  0  0  0
    7.4150   15.2000    2.5360 H   0  0  0  0  0  0  0  0  0  0  0  0
    9.7990   17.0080    3.2830 H   0  0  0  0  0  0  0  0  0  0  0  0
    9.4180   13.9330    3.2970 H   0  0  0  0  0  0  0  0  0  0  0  0
   11.8170   13.7970    3.6890 H   0  0  0  0  0  0  0  0  0  0  0  0
    5.9400   20.1580   11.1790 H   0  0  0  0  0  0  0  0  0  0  0  0
    5.5090   17.7560   12.1490 H   0  0  0  0  0  0  0  0  0  0  0  0
  1 37  1  0  0  0  0
  1 10  1  0  0  0  0
  2 38  1  1  0  0  0
  2 27  1  0  0  0  0
  3 39  1  0  0  0  0
  3  2  1  0  0  0  0
  4  2  1  0  0  0  0
  4  7  1  0  0  0  0
  5 41  1  0  0  0  0
  6 15  2  0  0  0  0
  7  1  1  0  0  0  0
  8 27  1  0  0  0  0
  9  7  2  0  0  0  0
 10 43  1  1  0  0  0
 10 12  1  0  0  0  0
 12 44  1  0  0  0  0
 12 13  1  0  0  0  0
 13 66  1  0  0  0  0
 13 45  1  0  0  0  0
 14 12  1  0  0  0  0
 14 67  1  0  0  0  0
 15  5  1  0  0  0  0
 15 10  1  0  0  0  0
 16  5  1  0  0  0  0
 16 68  1  0  0  0  0
 17 69  1  0  0  0  0
 17 16  1  0  0  0  0
 18 70  1  0  0  0  0
 18 17  1  0  0  0  0
 19 50  1  0  0  0  0
 19 18  1  0  0  0  0
 20 51  1  0  0  0  0
 20 19  1  0  0  0  0
 21 20  1  0  0  0  0
 21 73  1  0  0  0  0
 22 53  1  0  0  0  0
 22 21  1  0  0  0  0
 23 22  1  0  0  0  0
 23 24  1  0  0  0  0
 24 55  1  0  0  0  0
 25 77  1  0  0  0  0
 25 24  1  0  0  0  0
 25 26  1  0  0  0  0
 26 28  1  0  0  0  0
 27 58  1  1  0  0  0
 27 29  1  0  0  0  0
 28  8  1  0  0  0  0
 28 11  2  0  0  0  0
 29 30  1  0  0  0  0
 29 59  1  0  0  0  0
 30 31  2  0  0  0  0
 31 32  1  0  0  0  0
 31 60  1  0  0  0  0
 32 61  1  0  0  0  0
 33 62  1  0  0  0  0
 33 32  2  0  0  0  0
 34 33  1  0  0  0  0
 35 34  2  0  0  0  0
 35 30  1  0  0  0  0
 36 35  1  0  0  0  0
 40  4  1  0  0  0  0
 42  8  1  0  0  0  0
 46 14  1  0  0  0  0
 47 16  1  0  0  0  0
 48 17  1  0  0  0  0
 49 18  1  0  0  0  0
 52 21  1  0  0  0  0
 54 23  1  0  0  0  0
 56 25  1  0  0  0  0
 57 26  1  0  0  0  0
 63 34  1  0  0  0  0
 64 29  1  0  0  0  0
 65  4  1  0  0  0  0
 71 19  1  0  0  0  0
 72 20  1  0  0  0  0
 74 22  1  0  0  0  0
 75 23  1  0  0  0  0
 76 24  1  0  0  0  0
 78 26  1  0  0  0  0
 79 14  1  0  0  0  0
 80 13  1  0  0  0  0
M  END
>  <IC50_NM>
5.8

>  <number_of_rotatable_bonds>
3

>  <charge>
0

>  <lm5_entropy_jk>
30.51387600249522

$$$$
