35.pdb
 OpenBabel11252210453D

 75 76  0  0  1  0  0  0  0  0999 V2000
    8.4620   18.3580    8.9500 N   0  0  0  0  0  0  0  0  0  0  0  0
   11.3760   17.8270    7.5730 C   0  0  1  0  0  0  0  0  0  0  0  0
   12.3240   18.6040    6.8120 O   0  0  0  0  0  0  0  0  0  0  0  0
   10.0030   18.2550    7.0150 C   0  0  0  0  0  0  0  0  0  0  0  0
    4.8790   17.4910    9.3790 N   0  0  0  0  0  0  0  0  0  0  0  0
   11.5790   14.7470    4.0750 O   0  0  0  0  0  0  0  0  0  0  0  0
    8.8500   17.6460    7.7930 C   0  0  0  0  0  0  0  0  0  0  0  0
   11.7420   16.0070    5.9290 N   0  0  0  0  0  0  0  0  0  0  0  0
    5.8980   19.1660    8.1940 O   0  0  0  0  0  0  0  0  0  0  0  0
    7.2970   17.9330    9.7560 C   0  0  1  0  0  0  0  0  0  0  0  0
    8.3350   16.5820    7.4990 O   0  0  0  0  0  0  0  0  0  0  0  0
    7.3360   18.5820   11.1730 C   0  0  0  0  0  0  0  0  0  0  0  0
   10.2380   14.1780    5.8540 O   0  0  0  0  0  0  0  0  0  0  0  0
    6.4670   17.7850   12.1560 C   0  0  0  0  0  0  0  0  0  0  0  0
    6.9380   20.0600   11.1650 C   0  0  0  0  0  0  0  0  0  0  0  0
    5.9850   18.2570    9.0060 C   0  0  0  0  0  0  0  0  0  0  0  0
    3.5730   17.6170    8.6960 C   0  0  0  0  0  0  0  0  0  0  0  0
    3.3560   16.5920    7.5590 C   0  0  0  0  0  0  0  0  0  0  0  0
    4.3560   16.6040    6.5340 O   0  0  0  0  0  0  0  0  0  0  0  0
    4.4510   17.8340    5.7590 C   0  0  0  0  0  0  0  0  0  0  0  0
    5.0800   17.4000    4.4310 C   0  0  0  0  0  0  0  0  0  0  0  0
    6.3450   18.0880    4.2930 O   0  0  0  0  0  0  0  0  0  0  0  0
    7.5220   17.2710    4.1880 C   0  0  0  0  0  0  0  0  0  0  0  0
    7.5940   16.5470    2.8310 C   0  0  0  0  0  0  0  0  0  0  0  0
    8.4970   15.4290    2.9650 O   0  0  0  0  0  0  0  0  0  0  0  0
    9.8760   15.7010    2.6150 C   0  0  0  0  0  0  0  0  0  0  0  0
   10.6080   14.4250    3.0460 C   0  0  0  0  0  0  0  0  0  0  0  0
   11.7050   16.3050    7.3770 C   0  0  1  0  0  0  0  0  0  0  0  0
   11.0850   14.9020    5.3840 C   0  0  0  0  0  0  0  0  0  0  0  0
   13.0410   15.9620    8.0870 C   0  0  0  0  0  0  0  0  0  0  0  0
   13.4560   14.5260    7.9040 C   0  0  0  0  0  0  0  0  0  0  0  0
   12.7740   13.4980    8.5750 C   0  0  0  0  0  0  0  0  0  0  0  0
   13.1180   12.1610    8.3660 C   0  0  0  0  0  0  0  0  0  0  0  0
   14.1670   11.8320    7.5020 C   0  0  0  0  0  0  0  0  0  0  0  0
   14.8810   12.8510    6.8650 C   0  0  0  0  0  0  0  0  0  0  0  0
   14.5300   14.1890    7.0660 C   0  0  0  0  0  0  0  0  0  0  0  0
   15.1100   14.9710    6.5760 H   0  0  0  0  0  0  0  0  0  0  0  0
    8.7400   19.3510    9.0500 H   0  0  0  0  0  0  0  0  0  0  0  0
   11.4650   18.0900    8.6540 H   0  0  0  0  0  0  0  0  0  0  0  0
   12.9380   19.0990    7.4810 H   0  0  0  0  0  0  0  0  0  0  0  0
    9.9300   17.9380    5.9440 H   0  0  0  0  0  0  0  0  0  0  0  0
    5.0090   16.5990    9.8900 H   0  0  0  0  0  0  0  0  0  0  0  0
   12.5930   16.3580    5.4430 H   0  0  0  0  0  0  0  0  0  0  0  0
    7.3720   16.8270    9.9180 H   0  0  0  0  0  0  0  0  0  0  0  0
    8.3910   18.4830   11.5300 H   0  0  0  0  0  0  0  0  0  0  0  0
    6.7010   16.7000   12.1000 H   0  0  0  0  0  0  0  0  0  0  0  0
    7.5510   20.6290   10.4360 H   0  0  0  0  0  0  0  0  0  0  0  0
    3.4490   18.6620    8.3100 H   0  0  0  0  0  0  0  0  0  0  0  0
    2.3450   16.7630    7.1140 H   0  0  0  0  0  0  0  0  0  0  0  0
    5.1290   18.5240    6.3220 H   0  0  0  0  0  0  0  0  0  0  0  0
    4.4870   17.7790    3.5660 H   0  0  0  0  0  0  0  0  0  0  0  0
    7.5680   16.5350    5.0200 H   0  0  0  0  0  0  0  0  0  0  0  0
    7.9070   17.2180    2.0070 H   0  0  0  0  0  0  0  0  0  0  0  0
   10.2550   16.5880    3.1690 H   0  0  0  0  0  0  0  0  0  0  0  0
   11.2660   14.0230    2.2400 H   0  0  0  0  0  0  0  0  0  0  0  0
   10.8860   15.7140    7.8670 H   0  0  0  0  0  0  0  0  0  0  0  0
   12.9170   16.1840    9.1790 H   0  0  0  0  0  0  0  0  0  0  0  0
   11.9980   13.7520    9.2920 H   0  0  0  0  0  0  0  0  0  0  0  0
   12.5750   11.3740    8.8940 H   0  0  0  0  0  0  0  0  0  0  0  0
   14.4410   10.7880    7.3400 H   0  0  0  0  0  0  0  0  0  0  0  0
   15.7240   12.6050    6.2140 H   0  0  0  0  0  0  0  0  0  0  0  0
   13.8390   16.6450    7.7080 H   0  0  0  0  0  0  0  0  0  0  0  0
    9.9540   19.3700    7.0410 H   0  0  0  0  0  0  0  0  0  0  0  0
    5.3820   17.9290   11.9500 H   0  0  0  0  0  0  0  0  0  0  0  0
    7.0790   20.4940   12.1810 H   0  0  0  0  0  0  0  0  0  0  0  0
    2.7770   17.4380    9.4770 H   0  0  0  0  0  0  0  0  0  0  0  0
    3.4470   15.5500    7.9520 H   0  0  0  0  0  0  0  0  0  0  0  0
    3.4390   18.2690    5.6130 H   0  0  0  0  0  0  0  0  0  0  0  0
    5.1990   16.2950    4.3990 H   0  0  0  0  0  0  0  0  0  0  0  0
    8.3190   18.0440    4.2660 H   0  0  0  0  0  0  0  0  0  0  0  0
    6.6350   16.0390    2.5790 H   0  0  0  0  0  0  0  0  0  0  0  0
    9.9310   15.8600    1.5150 H   0  0  0  0  0  0  0  0  0  0  0  0
    9.8880   13.6630    3.4260 H   0  0  0  0  0  0  0  0  0  0  0  0
    5.8640   20.1750   10.8950 H   0  0  0  0  0  0  0  0  0  0  0  0
    6.6620   18.1380   13.1950 H   0  0  0  0  0  0  0  0  0  0  0  0
  1 38  1  0  0  0  0
  1 10  1  0  0  0  0
  2 39  1  1  0  0  0
  2 28  1  0  0  0  0
  3 40  1  0  0  0  0
  3  2  1  0  0  0  0
  4  2  1  0  0  0  0
  4  7  1  0  0  0  0
  5 42  1  0  0  0  0
  6 29  1  0  0  0  0
  7  1  1  0  0  0  0
  8 28  1  0  0  0  0
  9 16  2  0  0  0  0
 10 44  1  1  0  0  0
 10 12  1  0  0  0  0
 11  7  2  0  0  0  0
 12 15  1  0  0  0  0
 12 45  1  0  0  0  0
 12 14  1  0  0  0  0
 14 75  1  0  0  0  0
 15 65  1  0  0  0  0
 16  5  1  0  0  0  0
 16 10  1  0  0  0  0
 17 66  1  0  0  0  0
 17  5  1  0  0  0  0
 18 67  1  0  0  0  0
 18 17  1  0  0  0  0
 19 18  1  0  0  0  0
 20 50  1  0  0  0  0
 20 19  1  0  0  0  0
 21 69  1  0  0  0  0
 21 20  1  0  0  0  0
 22 23  1  0  0  0  0
 22 21  1  0  0  0  0
 23 70  1  0  0  0  0
 23 52  1  0  0  0  0
 24 71  1  0  0  0  0
 24 23  1  0  0  0  0
 25 24  1  0  0  0  0
 26 25  1  0  0  0  0
 26 27  1  0  0  0  0
 27 73  1  0  0  0  0
 27  6  1  0  0  0  0
 28 56  1  1  0  0  0
 28 30  1  0  0  0  0
 29 13  2  0  0  0  0
 29  8  1  0  0  0  0
 30 57  1  0  0  0  0
 31 30  1  0  0  0  0
 31 32  2  0  0  0  0
 32 58  1  0  0  0  0
 33 32  1  0  0  0  0
 33 59  1  0  0  0  0
 34 33  2  0  0  0  0
 35 36  2  0  0  0  0
 35 34  1  0  0  0  0
 36 31  1  0  0  0  0
 37 36  1  0  0  0  0
 41  4  1  0  0  0  0
 43  8  1  0  0  0  0
 46 14  1  0  0  0  0
 47 15  1  0  0  0  0
 48 17  1  0  0  0  0
 49 18  1  0  0  0  0
 51 21  1  0  0  0  0
 53 24  1  0  0  0  0
 54 26  1  0  0  0  0
 55 27  1  0  0  0  0
 60 34  1  0  0  0  0
 61 35  1  0  0  0  0
 62 30  1  0  0  0  0
 63  4  1  0  0  0  0
 64 14  1  0  0  0  0
 68 20  1  0  0  0  0
 72 26  1  0  0  0  0
 74 15  1  0  0  0  0
M  END
>  <IC50_NM>
850

>  <number_of_rotatable_bonds>
3

>  <charge>
0

>  <lm5_entropy_jk>
31.13362949117809

$$$$
