3RK5
 OpenBabel11252210453D

 35 37  0  0  1  0  0  0  0  0999 V2000
   64.2550  154.6660  -48.4830 N   0  0  0  0  0  0  0  0  0  0  0  0
   65.6460  154.3880  -50.3050 N   0  0  0  0  0  0  0  0  0  0  0  0
   67.0890  153.6780  -51.9670 N   0  0  0  0  0  0  0  0  0  0  0  0
   70.9450  150.1460  -47.8840 N   0  0  0  0  0  0  0  0  0  0  0  0
   63.6100  154.6120  -47.2570 C   0  0  0  0  0  0  0  0  0  0  0  0
   65.3720  154.1220  -49.0410 C   0  0  0  0  0  0  0  0  0  0  0  0
   66.7450  153.6660  -50.6830 C   0  0  0  0  0  0  0  0  0  0  0  0
   67.3520  152.9110  -49.7330 C   0  0  0  0  0  0  0  0  0  0  0  0
   68.5400  152.0960  -50.0020 C   0  0  0  0  0  0  0  0  0  0  0  0
   69.0220  151.1510  -48.9520 C   0  0  0  0  0  0  0  0  0  0  0  0
   68.1560  150.3020  -48.2380 C   0  0  0  0  0  0  0  0  0  0  0  0
   68.7190  149.3850  -47.3380 C   0  0  0  0  0  0  0  0  0  0  0  0
   70.1140  149.3380  -47.1890 C   0  0  0  0  0  0  0  0  0  0  0  0
   70.4060  151.0280  -48.7510 C   0  0  0  0  0  0  0  0  0  0  0  0
   62.7360  155.6520  -46.9270 C   0  0  0  0  0  0  0  0  0  0  0  0
   62.0740  155.6850  -45.6880 C   0  0  0  0  0  0  0  0  0  0  0  0
   62.2730  154.6510  -44.7510 C   0  0  0  0  0  0  0  0  0  0  0  0
   63.1080  153.5680  -45.1050 C   0  0  0  0  0  0  0  0  0  0  0  0
   63.7630  153.5510  -46.3530 C   0  0  0  0  0  0  0  0  0  0  0  0
   61.6170  154.7140  -43.3930 C   0  0  0  0  0  0  0  0  0  0  0  0
   69.1380  152.1710  -51.0610 O   0  0  0  0  0  0  0  0  0  0  0  0
   60.8260  155.6140  -43.1730 O   0  0  0  0  0  0  0  0  0  0  0  0
   61.9320  153.8850  -42.5610 O   0  5  0  0  0  0  0  0  0  0  0  0
   66.4920  153.0420  -48.2280 S   0  0  0  0  0  0  0  0  0  0  0  0
   63.7610  155.2340  -49.1660 H   0  0  0  0  0  0  0  0  0  0  0  0
   66.7330  154.3830  -52.5990 H   0  0  0  0  0  0  0  0  0  0  0  0
   67.9680  153.2150  -52.1630 H   0  0  0  0  0  0  0  0  0  0  0  0
   67.0780  150.3300  -48.3950 H   0  0  0  0  0  0  0  0  0  0  0  0
   68.0860  148.7050  -46.7690 H   0  0  0  0  0  0  0  0  0  0  0  0
   70.5770  148.6200  -46.5040 H   0  0  0  0  0  0  0  0  0  0  0  0
   71.1010  151.6520  -49.3210 H   0  0  0  0  0  0  0  0  0  0  0  0
   62.5750  156.4610  -47.6340 H   0  0  0  0  0  0  0  0  0  0  0  0
   61.4180  156.5240  -45.4500 H   0  0  0  0  0  0  0  0  0  0  0  0
   63.2580  152.7430  -44.4050 H   0  0  0  0  0  0  0  0  0  0  0  0
   64.3840  152.6980  -46.6020 H   0  0  0  0  0  0  0  0  0  0  0  0
  1  5  1  0  0  0  0
  1  6  1  0  0  0  0
  1 25  1  0  0  0  0
  2  6  2  0  0  0  0
  2  7  1  0  0  0  0
  3  7  1  0  0  0  0
  3 26  1  0  0  0  0
  3 27  1  0  0  0  0
  4 13  2  0  0  0  0
  4 14  1  0  0  0  0
  5 15  2  0  0  0  0
  5 19  1  0  0  0  0
  6 24  1  0  0  0  0
  7  8  2  0  0  0  0
  8 24  1  0  0  0  0
  9  8  1  0  0  0  0
  9 10  1  0  0  0  0
  9 21  2  0  0  0  0
 10 11  1  0  0  0  0
 10 14  2  0  0  0  0
 11 12  2  0  0  0  0
 11 28  1  0  0  0  0
 12 13  1  0  0  0  0
 12 29  1  0  0  0  0
 13 30  1  0  0  0  0
 14 31  1  0  0  0  0
 15 16  1  0  0  0  0
 15 32  1  0  0  0  0
 16 17  2  0  0  0  0
 16 33  1  0  0  0  0
 17 18  1  0  0  0  0
 17 20  1  0  0  0  0
 18 19  2  0  0  0  0
 18 34  1  0  0  0  0
 19 35  1  0  0  0  0
 20 22  2  0  0  0  0
 20 23  1  0  0  0  0
M  CHG  1  23  -1
M  END
>  <lm5_entropy_jk>
20.582349174783765

>  <number_of_rotatable_bonds>
5

>  <IC50_NM>
4000

>  <charge>
-1

$$$$
