3S00
 OpenBabel11252210453D

 28 29  0  0  1  0  0  0  0  0999 V2000
   65.8890  154.3520  -50.2600 N   0  0  0  0  0  0  0  0  0  0  0  0
   67.5050  153.4030  -51.7530 N   0  0  0  0  0  0  0  0  0  0  0  0
   64.3960  154.8600  -48.4530 N   0  0  0  0  0  0  0  0  0  0  0  0
   66.9800  153.4690  -50.5010 C   0  0  0  0  0  0  0  0  0  0  0  0
   67.4040  152.6550  -49.4200 C   0  0  0  0  0  0  0  0  0  0  0  0
   68.4570  151.6920  -49.4280 C   0  0  0  0  0  0  0  0  0  0  0  0
   68.6900  150.8380  -48.2400 C   0  0  0  0  0  0  0  0  0  0  0  0
   65.4230  154.1440  -49.0040 C   0  0  0  0  0  0  0  0  0  0  0  0
   63.6950  154.3850  -47.2240 C   0  0  0  0  0  0  0  0  0  0  0  0
   62.9790  155.5590  -46.6040 C   0  0  0  0  0  0  0  0  0  0  0  0
   63.0080  155.8380  -45.3030 C   0  0  0  0  0  0  0  0  0  0  0  0
   69.8320  149.3780  -46.5400 C   0  0  0  0  0  0  0  0  0  0  0  0
   68.5050  149.5580  -46.2760 C   0  0  0  0  0  0  0  0  0  0  0  0
   67.8500  150.3850  -47.2570 C   0  0  0  0  0  0  0  0  0  0  0  0
   69.2010  151.5550  -50.4020 O   0  0  0  0  0  0  0  0  0  0  0  0
   70.9270  148.4780  -45.6230 Cl  0  0  0  0  0  0  0  0  0  0  0  0
   66.3580  152.8750  -48.0580 S   0  0  0  0  0  0  0  0  0  0  0  0
   70.2940  150.2050  -47.9980 S   0  0  0  0  0  0  0  0  0  0  0  0
   67.1860  154.0470  -52.5050 H   0  0  0  0  0  0  0  0  0  0  0  0
   68.3180  152.8020  -51.9330 H   0  0  0  0  0  0  0  0  0  0  0  0
   63.7560  155.3820  -49.0930 H   0  0  0  0  0  0  0  0  0  0  0  0
   64.4220  153.9270  -46.5050 H   0  0  0  0  0  0  0  0  0  0  0  0
   62.9250  153.6090  -47.5000 H   0  0  0  0  0  0  0  0  0  0  0  0
   67.9650  149.1380  -45.4300 H   0  0  0  0  0  0  0  0  0  0  0  0
   66.7770  150.5600  -47.1670 H   0  0  0  0  0  0  0  0  0  0  0  0
   62.4560  156.6800  -44.8830 H   0  0  0  0  0  0  0  0  0  0  0  0
   63.5640  155.2470  -44.5750 H   0  0  0  0  0  0  0  0  0  0  0  0
   62.4040  156.1640  -47.3130 H   0  0  0  0  0  0  0  0  0  0  0  0
  1  4  1  0  0  0  0
  1  8  2  0  0  0  0
  2  4  1  0  0  0  0
  2 19  1  0  0  0  0
  2 20  1  0  0  0  0
  3  8  1  0  0  0  0
  3  9  1  0  0  0  0
  3 21  1  0  0  0  0
  4  5  2  0  0  0  0
  5  6  1  0  0  0  0
  5 17  1  0  0  0  0
  6  7  1  0  0  0  0
  6 15  2  0  0  0  0
  7 14  2  0  0  0  0
  7 18  1  0  0  0  0
  8 17  1  0  0  0  0
  9 10  1  0  0  0  0
  9 22  1  0  0  0  0
  9 23  1  0  0  0  0
 10 11  2  0  0  0  0
 10 28  1  0  0  0  0
 11 26  1  0  0  0  0
 11 27  1  0  0  0  0
 12 13  2  0  0  0  0
 12 16  1  0  0  0  0
 12 18  1  0  0  0  0
 13 14  1  0  0  0  0
 13 24  1  0  0  0  0
 14 25  1  0  0  0  0
M  END
>  <lm5_entropy_jk>
31.418959509749985

>  <number_of_rotatable_bonds>
5

>  <IC50_NM>
12000

>  <charge>
0

$$$$
