model08
 OpenBabel11252210453D

 74 75  0  0  1  0  0  0  0  0999 V2000
   11.3690   17.7510    7.4450 C   0  0  1  0  0  0  0  0  0  0  0  0
    8.5090   18.3790    8.8030 N   0  0  0  0  0  0  0  0  0  0  0  0
   12.3510   18.5330    6.7340 O   0  0  0  0  0  0  0  0  0  0  0  0
   10.0160   18.2080    6.8580 C   0  0  0  0  0  0  0  0  0  0  0  0
    5.0030   17.4170    9.5780 N   0  0  0  0  0  0  0  0  0  0  0  0
    5.8270   19.0520    8.1880 O   0  0  0  0  0  0  0  0  0  0  0  0
    8.8450   17.6510    7.6450 C   0  0  0  0  0  0  0  0  0  0  0  0
   11.7720   15.9110    5.8040 N   0  0  0  0  0  0  0  0  0  0  0  0
    8.2590   16.6220    7.3580 O   0  0  0  0  0  0  0  0  0  0  0  0
    7.4140   17.9590    9.7000 C   0  0  1  0  0  0  0  0  0  0  0  0
   10.3940   14.0660    5.8460 O   0  0  0  0  0  0  0  0  0  0  0  0
    7.4600   18.7180   11.0280 C   0  0  0  0  0  0  0  0  0  0  0  0
    6.0310   18.1950    9.0290 C   0  0  0  0  0  0  0  0  0  0  0  0
    3.6830   17.2670    8.9170 C   0  0  0  0  0  0  0  0  0  0  0  0
    3.6100   16.0380    7.9900 C   0  0  0  0  0  0  0  0  0  0  0  0
    4.5240   16.1190    6.7590 C   0  0  0  0  0  0  0  0  0  0  0  0
    4.0040   17.0690    5.6670 C   0  0  0  0  0  0  0  0  0  0  0  0
    5.1190   17.6990    4.8130 C   0  0  0  0  0  0  0  0  0  0  0  0
    6.1130   16.6720    4.2480 C   0  0  0  0  0  0  0  0  0  0  0  0
    6.9260   17.2290    3.0680 C   0  0  0  0  0  0  0  0  0  0  0  0
    7.9170   16.2000    2.4960 C   0  0  0  0  0  0  0  0  0  0  0  0
    9.1960   16.0670    3.3340 C   0  0  0  0  0  0  0  0  0  0  0  0
   10.0080   14.8230    2.9400 C   0  0  0  0  0  0  0  0  0  0  0  0
   11.3380   14.7160    3.7050 C   0  0  0  0  0  0  0  0  0  0  0  0
   11.6830   16.2270    7.2380 C   0  0  1  0  0  0  0  0  0  0  0  0
   11.1100   14.8190    5.2060 C   0  0  0  0  0  0  0  0  0  0  0  0
   12.9840   15.8620    8.0070 C   0  0  0  0  0  0  0  0  0  0  0  0
   13.3660   14.4120    7.8630 C   0  0  0  0  0  0  0  0  0  0  0  0
   12.6880   13.4180    8.5880 C   0  0  0  0  0  0  0  0  0  0  0  0
   13.0080   12.0690    8.4160 C   0  0  0  0  0  0  0  0  0  0  0  0
   14.0370   11.6940    7.5450 C   0  0  0  0  0  0  0  0  0  0  0  0
   14.7460   12.6800    6.8540 C   0  0  0  0  0  0  0  0  0  0  0  0
   14.4130   14.0290    7.0110 C   0  0  0  0  0  0  0  0  0  0  0  0
   14.9870   14.7820    6.4730 H   0  0  0  0  0  0  0  0  0  0  0  0
    8.8710   19.3370    8.9470 H   0  0  0  0  0  0  0  0  0  0  0  0
   11.4300   17.9980    8.5310 H   0  0  0  0  0  0  0  0  0  0  0  0
   12.9210   19.0400    7.4210 H   0  0  0  0  0  0  0  0  0  0  0  0
    9.9370   17.8640    5.7930 H   0  0  0  0  0  0  0  0  0  0  0  0
    5.2700   16.6080   10.1710 H   0  0  0  0  0  0  0  0  0  0  0  0
   12.5570   16.3720    5.3190 H   0  0  0  0  0  0  0  0  0  0  0  0
    7.5430   16.8610    9.9180 H   0  0  0  0  0  0  0  0  0  0  0  0
    8.2800   18.3060   11.6590 H   0  0  0  0  0  0  0  0  0  0  0  0
    6.5070   18.5720   11.5940 H   0  0  0  0  0  0  0  0  0  0  0  0
    7.6130   19.8090   10.8750 H   0  0  0  0  0  0  0  0  0  0  0  0
    3.4480   18.2020    8.3460 H   0  0  0  0  0  0  0  0  0  0  0  0
    2.5470   15.9250    7.6600 H   0  0  0  0  0  0  0  0  0  0  0  0
    4.6060   15.0950    6.3270 H   0  0  0  0  0  0  0  0  0  0  0  0
    3.4290   17.9040    6.1340 H   0  0  0  0  0  0  0  0  0  0  0  0
    5.6780   18.4350    5.4350 H   0  0  0  0  0  0  0  0  0  0  0  0
    5.5560   15.7750    3.8990 H   0  0  0  0  0  0  0  0  0  0  0  0
    7.4790   18.1410    3.3840 H   0  0  0  0  0  0  0  0  0  0  0  0
    8.1960   16.5170    1.4630 H   0  0  0  0  0  0  0  0  0  0  0  0
    8.9240   16.0070    4.4130 H   0  0  0  0  0  0  0  0  0  0  0  0
   10.2460   14.8730    1.8490 H   0  0  0  0  0  0  0  0  0  0  0  0
   12.0250   15.5190    3.3420 H   0  0  0  0  0  0  0  0  0  0  0  0
   10.8330   15.6460    7.6820 H   0  0  0  0  0  0  0  0  0  0  0  0
   12.8270   16.1110    9.0870 H   0  0  0  0  0  0  0  0  0  0  0  0
   11.9280   13.7030    9.3100 H   0  0  0  0  0  0  0  0  0  0  0  0
   12.4620   11.3090    8.9760 H   0  0  0  0  0  0  0  0  0  0  0  0
   14.2980   10.6430    7.4160 H   0  0  0  0  0  0  0  0  0  0  0  0
   15.5690   12.4010    6.1900 H   0  0  0  0  0  0  0  0  0  0  0  0
   13.8120   16.5150    7.6380 H   0  0  0  0  0  0  0  0  0  0  0  0
    9.9990   19.3240    6.8570 H   0  0  0  0  0  0  0  0  0  0  0  0
    2.9250   17.1480    9.7430 H   0  0  0  0  0  0  0  0  0  0  0  0
    3.8790   15.1280    8.5790 H   0  0  0  0  0  0  0  0  0  0  0  0
    5.5440   16.4430    7.0770 H   0  0  0  0  0  0  0  0  0  0  0  0
    3.3060   16.5070    5.0010 H   0  0  0  0  0  0  0  0  0  0  0  0
    4.6370   18.2470    3.9680 H   0  0  0  0  0  0  0  0  0  0  0  0
    6.8150   16.3730    5.0610 H   0  0  0  0  0  0  0  0  0  0  0  0
    6.2230   17.5100    2.2510 H   0  0  0  0  0  0  0  0  0  0  0  0
    7.4110   15.2120    2.4280 H   0  0  0  0  0  0  0  0  0  0  0  0
    9.8260   16.9740    3.1770 H   0  0  0  0  0  0  0  0  0  0  0  0
    9.4110   13.9030    3.1300 H   0  0  0  0  0  0  0  0  0  0  0  0
   11.8130   13.7310    3.4730 H   0  0  0  0  0  0  0  0  0  0  0  0
  1 36  1  1  0  0  0
  1 25  1  0  0  0  0
  2 35  1  0  0  0  0
  2 10  1  0  0  0  0
  3 37  1  0  0  0  0
  3  1  1  0  0  0  0
  4  1  1  0  0  0  0
  4  7  1  0  0  0  0
  5 39  1  0  0  0  0
  6 13  2  0  0  0  0
  7  2  1  0  0  0  0
  8 25  1  0  0  0  0
  9  7  2  0  0  0  0
 10 41  1  1  0  0  0
 10 12  1  0  0  0  0
 12 43  1  0  0  0  0
 12 42  1  0  0  0  0
 13  5  1  0  0  0  0
 13 10  1  0  0  0  0
 14  5  1  0  0  0  0
 14 64  1  0  0  0  0
 15 65  1  0  0  0  0
 15 14  1  0  0  0  0
 16 66  1  0  0  0  0
 16 15  1  0  0  0  0
 17 48  1  0  0  0  0
 17 16  1  0  0  0  0
 18 49  1  0  0  0  0
 18 17  1  0  0  0  0
 19 18  1  0  0  0  0
 19 69  1  0  0  0  0
 20 51  1  0  0  0  0
 20 19  1  0  0  0  0
 21 20  1  0  0  0  0
 21 22  1  0  0  0  0
 22 53  1  0  0  0  0
 23 22  1  0  0  0  0
 23 73  1  0  0  0  0
 23 24  1  0  0  0  0
 24 26  1  0  0  0  0
 25 56  1  1  0  0  0
 25 27  1  0  0  0  0
 26  8  1  0  0  0  0
 26 11  2  0  0  0  0
 27 57  1  0  0  0  0
 28 27  1  0  0  0  0
 28 29  2  0  0  0  0
 29 58  1  0  0  0  0
 30 29  1  0  0  0  0
 30 59  1  0  0  0  0
 31 30  2  0  0  0  0
 32 33  2  0  0  0  0
 32 31  1  0  0  0  0
 33 28  1  0  0  0  0
 34 33  1  0  0  0  0
 38  4  1  0  0  0  0
 40  8  1  0  0  0  0
 44 12  1  0  0  0  0
 45 14  1  0  0  0  0
 46 15  1  0  0  0  0
 47 16  1  0  0  0  0
 50 19  1  0  0  0  0
 52 21  1  0  0  0  0
 54 23  1  0  0  0  0
 55 24  1  0  0  0  0
 60 31  1  0  0  0  0
 61 32  1  0  0  0  0
 62 27  1  0  0  0  0
 63  4  1  0  0  0  0
 67 17  1  0  0  0  0
 68 18  1  0  0  0  0
 70 20  1  0  0  0  0
 71 21  1  0  0  0  0
 72 22  1  0  0  0  0
 74 24  1  0  0  0  0
M  END
>  <IC50_NM>
68.4

>  <number_of_rotatable_bonds>
2

>  <charge>
0

>  <lm5_entropy_jk>
22.370975242635136

$$$$
