4laz.pdb
 OpenBabel11252210453D

 35 36  0  0  0  0  0  0  0  0999 V2000
   14.1560  -11.9260   18.7520 Cl  0  0  0  0  0  0  0  0  0  0  0  0
   17.2220   -6.9540   12.3770 C   0  0  0  0  0  0  0  0  0  0  0  0
   18.2830   -6.3240   13.0490 C   0  0  0  0  0  0  0  0  0  0  0  0
   18.6500   -5.0220   12.6800 C   0  0  0  0  0  0  0  0  0  0  0  0
   16.4660   -6.2580   11.4290 C   0  0  0  0  0  0  0  0  0  0  0  0
   17.9240   -4.3290   11.7040 C   0  0  0  0  0  0  0  0  0  0  0  0
   16.8120   -4.9410   11.1340 C   0  0  0  0  0  0  0  0  0  0  0  0
   19.0190   -7.0160   14.1780 C   0  0  0  0  0  0  0  0  0  0  0  0
   18.0950   -7.7110   15.0970 N   0  0  0  0  0  0  0  0  0  0  0  0
   17.8750   -9.0800   14.9960 C   0  0  0  0  0  0  0  0  0  0  0  0
   18.3600   -9.7220   14.0610 O   0  0  0  0  0  0  0  0  0  0  0  0
   16.5330   -9.1170   17.2060 C   0  0  0  0  0  0  0  0  0  0  0  0
   17.0240   -9.7420   16.0230 C   0  0  0  0  0  0  0  0  0  0  0  0
   16.6940  -11.0890   15.7960 C   0  0  0  0  0  0  0  0  0  0  0  0
   15.6230   -9.7940   18.0480 C   0  0  0  0  0  0  0  0  0  0  0  0
   15.8460  -11.7900   16.6540 C   0  0  0  0  0  0  0  0  0  0  0  0
   15.3040  -11.1050   17.7410 C   0  0  0  0  0  0  0  0  0  0  0  0
   17.0320   -7.8920   17.4380 O   0  0  0  0  0  0  0  0  0  0  0  0
   16.7080   -7.1160   18.6360 C   0  0  0  0  0  0  0  0  0  0  0  0
   15.6100   -6.0400   18.2760 C   0  0  0  0  0  0  0  0  0  0  0  0
   15.1210   -5.4760   19.2750 O   0  0  0  0  0  0  0  0  0  0  0  0
   15.3190   -5.8670   17.0870 O   0  5  0  0  0  0  0  0  0  0  0  0
   15.5280   -3.7680    9.9100 I   0  0  0  0  0  0  0  0  0  0  0  0
   17.7050   -6.6690   18.8440 H   0  0  0  0  0  0  0  0  0  0  0  0
   16.9770   -7.9980   12.5940 H   0  0  0  0  0  0  0  0  0  0  0  0
   19.4740   -4.5120   13.1810 H   0  0  0  0  0  0  0  0  0  0  0  0
   15.6080   -6.7420   10.9510 H   0  0  0  0  0  0  0  0  0  0  0  0
   18.2130   -3.3100   11.4320 H   0  0  0  0  0  0  0  0  0  0  0  0
   19.6030   -6.2650   14.7820 H   0  0  0  0  0  0  0  0  0  0  0  0
   17.7020   -7.1350   15.8490 H   0  0  0  0  0  0  0  0  0  0  0  0
   17.0960  -11.6110   14.9170 H   0  0  0  0  0  0  0  0  0  0  0  0
   15.1930   -9.3200   18.9290 H   0  0  0  0  0  0  0  0  0  0  0  0
   15.6060  -12.8370   16.4640 H   0  0  0  0  0  0  0  0  0  0  0  0
   16.4030   -7.7750   19.4640 H   0  0  0  0  0  0  0  0  0  0  0  0
   19.7570   -7.7610   13.7660 H   0  0  0  0  0  0  0  0  0  0  0  0
  1 17  1  0  0  0  0
  2  3  2  0  0  0  0
  2  5  1  0  0  0  0
  2 25  1  0  0  0  0
  3  4  1  0  0  0  0
  3  8  1  0  0  0  0
  4  6  2  0  0  0  0
  4 26  1  0  0  0  0
  5  7  2  0  0  0  0
  5 27  1  0  0  0  0
  6  7  1  0  0  0  0
  6 28  1  0  0  0  0
  7 23  1  0  0  0  0
  8  9  1  0  0  0  0
  8 29  1  0  0  0  0
  8 35  1  0  0  0  0
  9 10  1  0  0  0  0
  9 30  1  0  0  0  0
 10 11  2  0  0  0  0
 10 13  1  0  0  0  0
 12 13  2  0  0  0  0
 12 15  1  0  0  0  0
 12 18  1  0  0  0  0
 13 14  1  0  0  0  0
 14 16  2  0  0  0  0
 14 31  1  0  0  0  0
 15 17  2  0  0  0  0
 15 32  1  0  0  0  0
 16 17  1  0  0  0  0
 16 33  1  0  0  0  0
 18 19  1  0  0  0  0
 19 20  1  0  0  0  0
 19 24  1  0  0  0  0
 19 34  1  0  0  0  0
 20 21  2  0  0  0  0
 20 22  1  0  0  0  0
M  CHG  1  22  -1
M  END
>  <deltaG_kcalmol>
-9.36

>  <charge>
-1

>  <lm5_entropy_jk>
25.63780735381752

>  <number_of_rotatable_bonds>
7

$$$$
