2IKJ
 OpenBabel11252210453D

 37 38  0  0  0  0  0  0  0  0999 V2000
   17.2820   -4.5190   11.1920 C   0  0  0  0  0  0  0  0  0  0  0  0
   17.9820   -3.5490   10.3010 N   0  3  0  0  0  0  0  0  0  0  0  0
   17.3140   -2.9310    9.4740 O   0  5  0  0  0  0  0  0  0  0  0  0
   19.2130   -3.5600   10.3110 O   0  0  0  0  0  0  0  0  0  0  0  0
   18.0030   -5.1950   12.2020 C   0  0  0  0  0  0  0  0  0  0  0  0
   17.3620   -6.0960   13.0670 C   0  0  0  0  0  0  0  0  0  0  0  0
   18.1880   -6.8050   14.1440 C   0  0  0  0  0  0  0  0  0  0  0  0
   17.4050   -7.6860   15.0410 N   0  0  0  0  0  0  0  0  0  0  0  0
   17.4690   -9.0590   15.0620 C   0  0  0  0  0  0  0  0  0  0  0  0
   16.6830   -9.7470   16.1230 C   0  0  0  0  0  0  0  0  0  0  0  0
   16.2930  -11.0800   15.9040 C   0  0  0  0  0  0  0  0  0  0  0  0
   15.5450  -11.7530   16.8770 C   0  0  0  0  0  0  0  0  0  0  0  0
   15.1690  -11.0980   18.0450 C   0  0  0  0  0  0  0  0  0  0  0  0
   14.3300  -11.9790   19.2890 Cl  0  0  0  0  0  0  0  0  0  0  0  0
   15.5440   -9.7730   18.2570 C   0  0  0  0  0  0  0  0  0  0  0  0
   16.3420   -9.1060   17.3230 C   0  0  0  0  0  0  0  0  0  0  0  0
   16.9100   -7.8790   17.6120 O   0  0  0  0  0  0  0  0  0  0  0  0
   16.6240   -7.0000   18.7460 C   0  0  0  0  0  0  0  0  0  0  0  0
   15.5350   -5.9700   18.5040 C   0  0  0  0  0  0  0  0  0  0  0  0
   15.0170   -5.5010   19.5040 O   0  0  0  0  0  0  0  0  0  0  0  0
   15.1510   -5.7560   17.3710 O   0  5  0  0  0  0  0  0  0  0  0  0
   18.1080   -9.6960   14.2450 O   0  0  0  0  0  0  0  0  0  0  0  0
   15.9780   -6.3030   12.9290 C   0  0  0  0  0  0  0  0  0  0  0  0
   15.2480   -5.6350   11.9280 C   0  0  0  0  0  0  0  0  0  0  0  0
   15.8950   -4.7440   11.0580 C   0  0  0  0  0  0  0  0  0  0  0  0
   16.3570   -7.5440   19.6500 H   0  0  0  0  0  0  0  0  0  0  0  0
   17.5090   -6.4090   18.9860 H   0  0  0  0  0  0  0  0  0  0  0  0
   16.9040   -7.2920   15.8360 H   0  0  0  0  0  0  0  0  0  0  0  0
   18.9730   -7.4090   13.6710 H   0  0  0  0  0  0  0  0  0  0  0  0
   18.7030   -6.0450   14.7500 H   0  0  0  0  0  0  0  0  0  0  0  0
   19.0640   -5.0040   12.3320 H   0  0  0  0  0  0  0  0  0  0  0  0
   15.3140   -4.2090   10.3060 H   0  0  0  0  0  0  0  0  0  0  0  0
   14.1720   -5.7820   11.8500 H   0  0  0  0  0  0  0  0  0  0  0  0
   15.4630   -6.9660   13.6160 H   0  0  0  0  0  0  0  0  0  0  0  0
   15.2730   -9.2930   19.1830 H   0  0  0  0  0  0  0  0  0  0  0  0
   15.2600  -12.7930   16.7240 H   0  0  0  0  0  0  0  0  0  0  0  0
   16.5730  -11.5960   14.9830 H   0  0  0  0  0  0  0  0  0  0  0  0
  1  5  1  0  0  0  0
  2  4  2  0  0  0  0
  2  1  1  0  0  0  0
  3  2  1  0  0  0  0
  5 31  1  0  0  0  0
  5  6  2  0  0  0  0
  6  7  1  0  0  0  0
  7 30  1  0  0  0  0
  7  8  1  0  0  0  0
  8  9  1  0  0  0  0
  8 28  1  0  0  0  0
  9 10  1  0  0  0  0
 10 16  1  0  0  0  0
 11 10  2  0  0  0  0
 11 12  1  0  0  0  0
 12 13  2  0  0  0  0
 13 15  1  0  0  0  0
 13 14  1  0  0  0  0
 15 35  1  0  0  0  0
 16 17  1  0  0  0  0
 16 15  2  0  0  0  0
 17 18  1  0  0  0  0
 18 27  1  0  0  0  0
 18 26  1  0  0  0  0
 19 18  1  0  0  0  0
 19 20  2  0  0  0  0
 21 19  1  0  0  0  0
 22  9  2  0  0  0  0
 23  6  1  0  0  0  0
 23 34  1  0  0  0  0
 24 23  2  0  0  0  0
 25  1  2  0  0  0  0
 25 24  1  0  0  0  0
 29  7  1  0  0  0  0
 32 25  1  0  0  0  0
 33 24  1  0  0  0  0
 36 12  1  0  0  0  0
 37 11  1  0  0  0  0
M  CHG  3   2   1   3  -1  21  -1
M  END
>  <lm5_entropy_jk>
26.811197289937112

>  <number_of_rotatable_bonds>
8

>  <deltaG_kcalmol>
-10.09

>  <charge>
-1

$$$$
