3RAK
 OpenBabel11252210453D

 39 41  0  0  1  0  0  0  0  0999 V2000
   66.0180  154.3210  -50.4300 N   0  0  0  0  0  0  0  0  0  0  0  0
   67.5680  153.4510  -52.0470 N   0  0  0  0  0  0  0  0  0  0  0  0
   64.6270  154.7960  -48.5710 N   0  0  0  0  0  0  0  0  0  0  0  0
   62.0700  152.7840  -42.6580 N   0  0  0  0  0  0  0  0  0  0  0  0
   69.0420  148.9060  -46.5360 C   0  0  0  0  0  0  0  0  0  0  0  0
   70.1570  149.5850  -47.0370 C   0  0  0  0  0  0  0  0  0  0  0  0
   70.0160  150.4930  -48.0910 C   0  0  0  0  0  0  0  0  0  0  0  0
   67.6390  150.0060  -48.1750 C   0  0  0  0  0  0  0  0  0  0  0  0
   67.7830  149.1240  -47.1010 C   0  0  0  0  0  0  0  0  0  0  0  0
   68.7540  150.7000  -48.6650 C   0  0  0  0  0  0  0  0  0  0  0  0
   68.6140  151.6280  -49.8380 C   0  0  0  0  0  0  0  0  0  0  0  0
   67.6260  152.6620  -49.7330 C   0  0  0  0  0  0  0  0  0  0  0  0
   67.1190  153.4760  -50.7670 C   0  0  0  0  0  0  0  0  0  0  0  0
   65.6760  154.1000  -49.1430 C   0  0  0  0  0  0  0  0  0  0  0  0
   63.9350  154.5010  -47.3600 C   0  0  0  0  0  0  0  0  0  0  0  0
   64.1020  153.3350  -46.5990 C   0  0  0  0  0  0  0  0  0  0  0  0
   63.3360  153.1530  -45.4450 C   0  0  0  0  0  0  0  0  0  0  0  0
   62.3820  154.0980  -45.0540 C   0  0  0  0  0  0  0  0  0  0  0  0
   62.2290  155.2720  -45.8080 C   0  0  0  0  0  0  0  0  0  0  0  0
   62.9980  155.4780  -46.9460 C   0  0  0  0  0  0  0  0  0  0  0  0
   60.1360  153.0850  -44.3930 O   0  0  0  0  0  0  0  0  0  0  0  0
   60.9320  154.9990  -43.0260 O   0  0  0  0  0  0  0  0  0  0  0  0
   69.3070  151.4740  -50.8370 O   0  0  0  0  0  0  0  0  0  0  0  0
   66.7540  152.9160  -48.2620 S   0  0  0  0  0  0  0  0  0  0  0  0
   61.2690  153.7800  -43.7790 S   0  0  0  0  0  0  0  0  0  0  0  0
   69.1480  148.2010  -45.7080 H   0  0  0  0  0  0  0  0  0  0  0  0
   71.1320  149.3850  -46.5990 H   0  0  0  0  0  0  0  0  0  0  0  0
   67.1750  154.0920  -52.7630 H   0  0  0  0  0  0  0  0  0  0  0  0
   68.3850  152.8800  -52.2900 H   0  0  0  0  0  0  0  0  0  0  0  0
   70.8840  151.0410  -48.4650 H   0  0  0  0  0  0  0  0  0  0  0  0
   64.0700  155.4170  -49.2160 H   0  0  0  0  0  0  0  0  0  0  0  0
   66.6490  150.1300  -48.6140 H   0  0  0  0  0  0  0  0  0  0  0  0
   62.1750  151.7680  -42.9410 H   0  0  0  0  0  0  0  0  0  0  0  0
   61.8660  152.8670  -41.6530 H   0  0  0  0  0  0  0  0  0  0  0  0
   66.9110  148.6090  -46.6950 H   0  0  0  0  0  0  0  0  0  0  0  0
   64.7860  152.5340  -46.8830 H   0  0  0  0  0  0  0  0  0  0  0  0
   63.5090  152.2420  -44.8600 H   0  0  0  0  0  0  0  0  0  0  0  0
   61.5020  156.0450  -45.5260 H   0  0  0  0  0  0  0  0  0  0  0  0
   62.8540  156.3870  -47.5340 H   0  0  0  0  0  0  0  0  0  0  0  0
  1 13  1  0  0  0  0
  1 14  2  0  0  0  0
  2 13  1  0  0  0  0
  2 28  1  0  0  0  0
  2 29  1  0  0  0  0
  3 14  1  0  0  0  0
  3 15  1  0  0  0  0
  3 31  1  0  0  0  0
  4 25  1  0  0  0  0
  4 33  1  0  0  0  0
  4 34  1  0  0  0  0
  5  6  2  0  0  0  0
  5  9  1  0  0  0  0
  5 26  1  0  0  0  0
  6  7  1  0  0  0  0
  6 27  1  0  0  0  0
  7 10  2  0  0  0  0
  7 30  1  0  0  0  0
  8  9  2  0  0  0  0
  8 10  1  0  0  0  0
  8 32  1  0  0  0  0
  9 35  1  0  0  0  0
 11 10  1  0  0  0  0
 11 12  1  0  0  0  0
 11 23  2  0  0  0  0
 12 13  2  0  0  0  0
 12 24  1  0  0  0  0
 14 24  1  0  0  0  0
 15 16  2  0  0  0  0
 15 20  1  0  0  0  0
 16 17  1  0  0  0  0
 16 36  1  0  0  0  0
 17 18  2  0  0  0  0
 17 37  1  0  0  0  0
 18 19  1  0  0  0  0
 18 25  1  0  0  0  0
 19 20  2  0  0  0  0
 19 38  1  0  0  0  0
 20 39  1  0  0  0  0
 21 25  2  0  0  0  0
 22 25  2  0  0  0  0
M  END
>  <lm5_entropy_jk>
22.952794734129974

>  <number_of_rotatable_bonds>
5

>  <IC50_NM>
130

>  <charge>
0

$$$$
