3R9N
 OpenBabel11252210453D

 42 44  0  0  1  0  0  0  0  0999 V2000
   67.9310  150.7460  -44.1660 N   0  3  0  0  0  0  0  0  0  0  0  0
   65.6490  154.5590  -50.1250 N   0  0  0  0  0  0  0  0  0  0  0  0
   64.1930  155.1850  -48.3220 N   0  0  0  0  0  0  0  0  0  0  0  0
   67.2730  153.5540  -51.5750 N   0  0  0  0  0  0  0  0  0  0  0  0
   68.0800  149.0430  -45.9690 C   0  0  0  0  0  0  0  0  0  0  0  0
   68.0450  150.3940  -45.6020 C   0  0  0  0  0  0  0  0  0  0  0  0
   68.1210  151.4170  -46.5620 C   0  0  0  0  0  0  0  0  0  0  0  0
   68.2620  151.0800  -47.9100 C   0  0  0  0  0  0  0  0  0  0  0  0
   68.3580  149.7300  -48.2810 C   0  0  0  0  0  0  0  0  0  0  0  0
   68.2430  148.7260  -47.3190 C   0  0  0  0  0  0  0  0  0  0  0  0
   68.3150  152.1070  -49.0220 C   0  0  0  0  0  0  0  0  0  0  0  0
   67.1490  152.9090  -49.2010 C   0  0  0  0  0  0  0  0  0  0  0  0
   66.7440  153.6750  -50.3220 C   0  0  0  0  0  0  0  0  0  0  0  0
   65.1550  154.3900  -48.8710 C   0  0  0  0  0  0  0  0  0  0  0  0
   63.6510  154.9820  -46.9420 C   0  0  0  0  0  0  0  0  0  0  0  0
   62.6580  153.8030  -46.8720 C   0  0  0  0  0  0  0  0  0  0  0  0
   62.1120  153.6810  -45.4410 C   0  0  0  0  0  0  0  0  0  0  0  0
   61.4400  154.9800  -44.9700 C   0  0  0  0  0  0  0  0  0  0  0  0
   62.4000  156.1720  -45.0940 C   0  0  0  0  0  0  0  0  0  0  0  0
   62.9510  156.2940  -46.5220 C   0  0  0  0  0  0  0  0  0  0  0  0
   68.6110  151.6700  -43.7500 O   0  5  0  0  0  0  0  0  0  0  0  0
   67.1690  150.0910  -43.4690 O   0  0  0  0  0  0  0  0  0  0  0  0
   69.3110  152.1700  -49.7310 O   0  0  0  0  0  0  0  0  0  0  0  0
   65.9740  153.0310  -47.9330 S   0  0  0  0  0  0  0  0  0  0  0  0
   67.9910  148.2440  -45.2260 H   0  0  0  0  0  0  0  0  0  0  0  0
   68.0850  152.4560  -46.2390 H   0  0  0  0  0  0  0  0  0  0  0  0
   63.5280  155.6590  -48.9750 H   0  0  0  0  0  0  0  0  0  0  0  0
   66.9850  154.1920  -52.3460 H   0  0  0  0  0  0  0  0  0  0  0  0
   68.1370  153.0260  -51.7080 H   0  0  0  0  0  0  0  0  0  0  0  0
   68.5330  149.4560  -49.3220 H   0  0  0  0  0  0  0  0  0  0  0  0
   68.2780  147.6800  -47.6170 H   0  0  0  0  0  0  0  0  0  0  0  0
   64.5140  154.7880  -46.2590 H   0  0  0  0  0  0  0  0  0  0  0  0
   63.1640  152.8510  -47.1450 H   0  0  0  0  0  0  0  0  0  0  0  0
   61.8290  153.9880  -47.5900 H   0  0  0  0  0  0  0  0  0  0  0  0
   62.9560  153.4340  -44.7510 H   0  0  0  0  0  0  0  0  0  0  0  0
   61.3820  152.8480  -45.3900 H   0  0  0  0  0  0  0  0  0  0  0  0
   61.1270  154.8670  -43.9070 H   0  0  0  0  0  0  0  0  0  0  0  0
   60.5390  155.1860  -45.5900 H   0  0  0  0  0  0  0  0  0  0  0  0
   61.8590  157.1140  -44.8360 H   0  0  0  0  0  0  0  0  0  0  0  0
   63.2470  156.0470  -44.3780 H   0  0  0  0  0  0  0  0  0  0  0  0
   62.1130  156.5070  -47.2300 H   0  0  0  0  0  0  0  0  0  0  0  0
   63.6690  157.1390  -46.5540 H   0  0  0  0  0  0  0  0  0  0  0  0
  1  6  1  0  0  0  0
  1 21  1  0  0  0  0
  1 22  2  0  0  0  0
  2 13  1  0  0  0  0
  2 14  2  0  0  0  0
  3 14  1  0  0  0  0
  3 15  1  0  0  0  0
  3 27  1  0  0  0  0
  4 13  1  0  0  0  0
  4 28  1  0  0  0  0
  4 29  1  0  0  0  0
  5  6  2  0  0  0  0
  5 10  1  0  0  0  0
  5 25  1  0  0  0  0
  6  7  1  0  0  0  0
  7  8  2  0  0  0  0
  7 26  1  0  0  0  0
  8  9  1  0  0  0  0
  9 10  2  0  0  0  0
  9 30  1  0  0  0  0
 10 31  1  0  0  0  0
 11  8  1  0  0  0  0
 11 12  1  0  0  0  0
 11 23  2  0  0  0  0
 12 13  2  0  0  0  0
 12 24  1  0  0  0  0
 14 24  1  0  0  0  0
 15 16  1  0  0  0  0
 15 20  1  0  0  0  0
 15 32  1  0  0  0  0
 16 17  1  0  0  0  0
 16 33  1  0  0  0  0
 16 34  1  0  0  0  0
 17 18  1  0  0  0  0
 17 35  1  0  0  0  0
 17 36  1  0  0  0  0
 18 19  1  0  0  0  0
 18 37  1  0  0  0  0
 18 38  1  0  0  0  0
 19 20  1  0  0  0  0
 19 39  1  0  0  0  0
 19 40  1  0  0  0  0
 20 41  1  0  0  0  0
 20 42  1  0  0  0  0
M  CHG  2   1   1  21  -1
M  END
>  <lm5_entropy_jk>
22.585594734129973

>  <number_of_rotatable_bonds>
5

>  <IC50_NM>
1400

>  <charge>
0

$$$$
