3r9d.pdb
 OpenBabel11252210453D

 41 43  0  0  0  0  0  0  0  0999 V2000
   65.7680  154.5020  -50.6540 N   0  0  0  0  0  0  0  0  0  0  0  0
   64.3810  155.0800  -48.7920 N   0  0  0  0  0  0  0  0  0  0  0  0
   68.6270  151.1990  -48.7070 N   0  0  0  0  0  0  0  0  0  0  0  0
   67.3920  153.5640  -52.1700 N   0  0  0  0  0  0  0  0  0  0  0  0
   62.0380  153.0180  -42.8380 N   0  0  0  0  0  0  0  0  0  0  0  0
   67.4670  153.0120  -49.7990 C   0  0  0  0  0  0  0  0  0  0  0  0
   66.9210  153.6910  -50.9040 C   0  0  0  0  0  0  0  0  0  0  0  0
   65.4350  154.3860  -49.3530 C   0  0  0  0  0  0  0  0  0  0  0  0
   63.6810  154.7450  -47.5920 C   0  0  0  0  0  0  0  0  0  0  0  0
   68.5710  152.0860  -49.8170 C   0  0  0  0  0  0  0  0  0  0  0  0
   62.7350  155.6990  -47.1520 C   0  0  0  0  0  0  0  0  0  0  0  0
   61.9940  155.4670  -45.9990 C   0  0  0  0  0  0  0  0  0  0  0  0
   62.1800  154.2870  -45.2640 C   0  0  0  0  0  0  0  0  0  0  0  0
   63.1260  153.3520  -45.6960 C   0  0  0  0  0  0  0  0  0  0  0  0
   63.8620  153.5590  -46.8660 C   0  0  0  0  0  0  0  0  0  0  0  0
   69.6620  150.2790  -48.3950 C   0  0  0  0  0  0  0  0  0  0  0  0
   69.4450  149.4320  -47.2840 C   0  0  0  0  0  0  0  0  0  0  0  0
   70.4100  148.4980  -46.9190 C   0  0  0  0  0  0  0  0  0  0  0  0
   71.6130  148.4010  -47.6280 C   0  0  0  0  0  0  0  0  0  0  0  0
   71.7910  149.2570  -48.7160 C   0  0  0  0  0  0  0  0  0  0  0  0
   70.8570  150.2010  -49.1320 C   0  0  0  0  0  0  0  0  0  0  0  0
   69.4030  152.0280  -50.7140 O   0  0  0  0  0  0  0  0  0  0  0  0
   60.0370  153.1430  -44.5040 O   0  0  0  0  0  0  0  0  0  0  0  0
   60.7340  155.1430  -43.2050 O   0  0  0  0  0  0  0  0  0  0  0  0
   66.5770  153.3560  -48.3660 S   0  0  0  0  0  0  0  0  0  0  0  0
   61.1310  153.9350  -43.9420 S   0  0  0  0  0  0  0  0  0  0  0  0
   72.9250  149.1560  -49.4130 F   0  0  0  0  0  0  0  0  0  0  0  0
   63.8180  155.6930  -49.4390 H   0  0  0  0  0  0  0  0  0  0  0  0
   67.8120  151.1560  -48.0650 H   0  0  0  0  0  0  0  0  0  0  0  0
   67.0010  154.1330  -52.9430 H   0  0  0  0  0  0  0  0  0  0  0  0
   68.2800  153.0710  -52.3270 H   0  0  0  0  0  0  0  0  0  0  0  0
   62.1370  151.9870  -43.0600 H   0  0  0  0  0  0  0  0  0  0  0  0
   61.9510  153.1760  -41.8260 H   0  0  0  0  0  0  0  0  0  0  0  0
   62.5660  156.6120  -47.7260 H   0  0  0  0  0  0  0  0  0  0  0  0
   61.2630  156.2270  -45.6930 H   0  0  0  0  0  0  0  0  0  0  0  0
   63.3180  152.4330  -45.1300 H   0  0  0  0  0  0  0  0  0  0  0  0
   64.5380  152.7640  -47.1860 H   0  0  0  0  0  0  0  0  0  0  0  0
   68.5180  149.4860  -46.7070 H   0  0  0  0  0  0  0  0  0  0  0  0
   70.2100  147.8170  -46.0840 H   0  0  0  0  0  0  0  0  0  0  0  0
   72.3200  147.6240  -47.3470 H   0  0  0  0  0  0  0  0  0  0  0  0
   71.0350  150.8440  -50.0040 H   0  0  0  0  0  0  0  0  0  0  0  0
  1  8  2  0  0  0  0
  2  9  1  0  0  0  0
  2 28  1  0  0  0  0
  3 16  1  0  0  0  0
  3 29  1  0  0  0  0
  4  7  1  0  0  0  0
  4 30  1  0  0  0  0
  4 31  1  0  0  0  0
  5 32  1  0  0  0  0
  5 33  1  0  0  0  0
  6 25  1  0  0  0  0
  7  1  1  0  0  0  0
  7  6  2  0  0  0  0
  8  2  1  0  0  0  0
  8 25  1  0  0  0  0
  9 11  2  0  0  0  0
  9 15  1  0  0  0  0
 10  6  1  0  0  0  0
 10  3  1  0  0  0  0
 11 12  1  0  0  0  0
 11 34  1  0  0  0  0
 12 13  2  0  0  0  0
 12 35  1  0  0  0  0
 13 26  1  0  0  0  0
 14 13  1  0  0  0  0
 14 36  1  0  0  0  0
 15 14  2  0  0  0  0
 15 37  1  0  0  0  0
 16 17  2  0  0  0  0
 17 18  1  0  0  0  0
 17 38  1  0  0  0  0
 18 39  1  0  0  0  0
 19 18  2  0  0  0  0
 19 40  1  0  0  0  0
 20 19  1  0  0  0  0
 21 20  2  0  0  0  0
 21 16  1  0  0  0  0
 21 41  1  0  0  0  0
 22 10  2  0  0  0  0
 23 26  2  0  0  0  0
 26 24  2  0  0  0  0
 26  5  1  0  0  0  0
 27 20  1  0  0  0  0
M  END
>  <lm5_entropy_jk>
21.052089499889224

>  <number_of_rotatable_bonds>
6

>  <IC50_NM>
71000

>  <charge>
0

$$$$
