5NXV
 OpenBabel11252210453D

 35 36  0  0  0  0  0  0  0  0999 V2000
   -0.5760   10.5670   13.7300 C   0  0  0  0  0  0  0  0  0  0  0  0
   -2.9610   10.7270   10.9030 N   0  0  0  0  0  0  0  0  0  0  0  0
   -3.3410    8.4940   13.6950 O   0  0  0  0  0  0  0  0  0  0  0  0
   -5.4470    2.6470   16.3530 S   0  0  0  0  0  0  0  0  0  0  0  0
   -1.5410   10.9710   12.6970 C   0  0  0  0  0  0  0  0  0  0  0  0
   -2.1310   10.0940   11.7560 N   0  0  0  0  0  0  0  0  0  0  0  0
   -4.6460    2.9180   17.5510 O   0  0  0  0  0  0  0  0  0  0  0  0
   -2.0530   12.2360   12.3810 C   0  0  0  0  0  0  0  0  0  0  0  0
   -3.2060    6.6040   12.3850 N   0  0  0  0  0  0  0  0  0  0  0  0
   -6.8980    2.8990   16.3860 O   0  0  0  0  0  0  0  0  0  0  0  0
   -2.9190   12.0560   11.2550 C   0  0  0  0  0  0  0  0  0  0  0  0
   -5.4100    1.0630   15.8520 N   0  5  0  0  0  0  0  0  0  0  0  0
   -3.7230   14.1920   11.1060 O   0  5  0  0  0  0  0  0  0  0  0  0
   -1.9830    8.6320   11.6880 C   0  0  0  0  0  0  0  0  0  0  0  0
   -3.6640   13.1020   10.5560 N   0  3  0  0  0  0  0  0  0  0  0  0
   -4.1760   12.8400    9.4820 O   0  0  0  0  0  0  0  0  0  0  0  0
   -2.9040    7.9270   12.7140 C   0  0  0  0  0  0  0  0  0  0  0  0
   -3.8080    5.6620   13.3080 C   0  0  0  0  0  0  0  0  0  0  0  0
   -4.9110    6.0010   14.1020 C   0  0  0  0  0  0  0  0  0  0  0  0
   -5.4170    5.0560   15.0060 C   0  0  0  0  0  0  0  0  0  0  0  0
   -4.8430    3.7880   15.1190 C   0  0  0  0  0  0  0  0  0  0  0  0
   -3.7770    3.4500   14.2850 C   0  0  0  0  0  0  0  0  0  0  0  0
   -3.2570    4.3740   13.3750 C   0  0  0  0  0  0  0  0  0  0  0  0
   -1.7360   13.6800   13.1680 Cl  0  0  0  0  0  0  0  0  0  0  0  0
   -2.6900    6.1820   11.5930 H   0  0  0  0  0  0  0  0  0  0  0  0
   -5.3580    6.9920   14.0250 H   0  0  0  0  0  0  0  0  0  0  0  0
   -6.2710    5.3560   15.6290 H   0  0  0  0  0  0  0  0  0  0  0  0
   -3.3090    2.4630   14.3060 H   0  0  0  0  0  0  0  0  0  0  0  0
   -2.4130    4.1000   12.7350 H   0  0  0  0  0  0  0  0  0  0  0  0
   -0.2620   11.4570   14.3400 H   0  0  0  0  0  0  0  0  0  0  0  0
    0.3500   10.1420   13.2600 H   0  0  0  0  0  0  0  0  0  0  0  0
   -1.0120    9.8040   14.4230 H   0  0  0  0  0  0  0  0  0  0  0  0
   -4.4960    0.6330   16.2460 H   0  0  0  0  0  0  0  0  0  0  0  0
   -0.9100    8.3470   11.9040 H   0  0  0  0  0  0  0  0  0  0  0  0
   -2.2010    8.2740   10.6350 H   0  0  0  0  0  0  0  0  0  0  0  0
  1  5  1  0  0  0  0
  2  6  1  0  0  0  0
  2 11  2  0  0  0  0
  3 17  2  0  0  0  0
  4  7  2  0  0  0  0
  4 10  2  0  0  0  0
  4 12  1  0  0  0  0
  4 21  1  0  0  0  0
  5  6  1  0  0  0  0
  5  8  2  0  0  0  0
  6 14  1  0  0  0  0
  8 11  1  0  0  0  0
  8 24  1  0  0  0  0
  9 17  1  0  0  0  0
  9 18  1  0  0  0  0
 11 15  1  0  0  0  0
 13 15  1  0  0  0  0
 14 17  1  0  0  0  0
 15 16  2  0  0  0  0
 18 19  2  0  0  0  0
 18 23  1  0  0  0  0
 19 20  1  0  0  0  0
 20 21  2  0  0  0  0
 21 22  1  0  0  0  0
 22 23  2  0  0  0  0
 25  9  1  0  0  0  0
 26 19  1  0  0  0  0
 27 20  1  0  0  0  0
 28 22  1  0  0  0  0
 29 23  1  0  0  0  0
 30  1  1  0  0  0  0
 31  1  1  0  0  0  0
 32  1  1  0  0  0  0
 33 12  1  0  0  0  0
 34 14  1  0  0  0  0
 35 14  1  0  0  0  0
M  CHG  3  12  -1  13  -1  15   1
M  END
>  <deltaG_kcalmol>
-11.5

>  <number_of_rotatable_bonds>
6

>  <charge>
-1

>  <lm5_entropy_jk>
29.078390290150285

$$$$
