3RJC
 OpenBabel11252210453D

 34 36  0  0  0  0  0  0  0  0999 V2000
   65.8780  154.2900  -50.4740 N   0  0  0  0  0  0  0  0  0  0  0  0
   66.9540  153.4990  -50.7840 C   0  0  0  0  0  0  0  0  0  0  0  0
   67.3490  153.4620  -52.0530 N   0  0  0  0  0  0  0  0  0  0  0  0
   67.4400  152.6970  -49.8010 C   0  0  0  0  0  0  0  0  0  0  0  0
   68.4750  151.6740  -50.0230 C   0  0  0  0  0  0  0  0  0  0  0  0
   68.7230  150.6290  -48.9540 C   0  0  0  0  0  0  0  0  0  0  0  0
   67.6730  150.0750  -48.1840 C   0  0  0  0  0  0  0  0  0  0  0  0
   67.9300  149.0850  -47.2220 C   0  0  0  0  0  0  0  0  0  0  0  0
   69.2310  148.5950  -47.0480 C   0  0  0  0  0  0  0  0  0  0  0  0
   70.2720  149.0910  -47.8490 C   0  0  0  0  0  0  0  0  0  0  0  0
   70.0220  150.1030  -48.7920 C   0  0  0  0  0  0  0  0  0  0  0  0
   69.1050  151.6450  -51.0670 O   0  0  0  0  0  0  0  0  0  0  0  0
   66.6430  153.0600  -48.3000 S   0  0  0  0  0  0  0  0  0  0  0  0
   65.5470  154.0770  -49.2140 C   0  0  0  0  0  0  0  0  0  0  0  0
   64.4120  154.6400  -48.7130 N   0  0  0  0  0  0  0  0  0  0  0  0
   63.7260  154.5520  -47.5170 C   0  0  0  0  0  0  0  0  0  0  0  0
   62.9230  155.6250  -47.1280 C   0  0  0  0  0  0  0  0  0  0  0  0
   62.2270  155.5930  -45.9210 C   0  0  0  0  0  0  0  0  0  0  0  0
   62.3170  154.4790  -45.0860 C   0  0  0  0  0  0  0  0  0  0  0  0
   63.0990  153.3800  -45.4700 C   0  0  0  0  0  0  0  0  0  0  0  0
   63.7870  153.4170  -46.6940 C   0  0  0  0  0  0  0  0  0  0  0  0
   61.4830  156.6520  -45.5510 F   0  0  0  0  0  0  0  0  0  0  0  0
   67.0970  154.2010  -52.6980 H   0  0  0  0  0  0  0  0  0  0  0  0
   68.1800  152.9030  -52.2060 H   0  0  0  0  0  0  0  0  0  0  0  0
   66.6470  150.3950  -48.3420 H   0  0  0  0  0  0  0  0  0  0  0  0
   67.1140  148.6830  -46.6200 H   0  0  0  0  0  0  0  0  0  0  0  0
   69.4220  147.8060  -46.3190 H   0  0  0  0  0  0  0  0  0  0  0  0
   71.2700  148.6710  -47.7520 H   0  0  0  0  0  0  0  0  0  0  0  0
   70.8340  150.4760  -49.4180 H   0  0  0  0  0  0  0  0  0  0  0  0
   63.9560  155.2490  -49.3860 H   0  0  0  0  0  0  0  0  0  0  0  0
   62.8380  156.5020  -47.7570 H   0  0  0  0  0  0  0  0  0  0  0  0
   61.7830  154.4750  -44.1380 H   0  0  0  0  0  0  0  0  0  0  0  0
   63.1810  152.5080  -44.8200 H   0  0  0  0  0  0  0  0  0  0  0  0
   64.3580  152.5470  -46.9950 H   0  0  0  0  0  0  0  0  0  0  0  0
  1 14  2  0  0  0  0
  2  1  1  0  0  0  0
  2  4  2  0  0  0  0
  3  2  1  0  0  0  0
  3 23  1  0  0  0  0
  3 24  1  0  0  0  0
  4 13  1  0  0  0  0
  5  4  1  0  0  0  0
  5  6  1  0  0  0  0
  6 11  2  0  0  0  0
  6  7  1  0  0  0  0
  7  8  2  0  0  0  0
  7 25  1  0  0  0  0
  8  9  1  0  0  0  0
  8 26  1  0  0  0  0
  9 27  1  0  0  0  0
 10  9  2  0  0  0  0
 10 28  1  0  0  0  0
 11 10  1  0  0  0  0
 11 29  1  0  0  0  0
 12  5  2  0  0  0  0
 14 15  1  0  0  0  0
 14 13  1  0  0  0  0
 15 16  1  0  0  0  0
 15 30  1  0  0  0  0
 16 17  2  0  0  0  0
 16 21  1  0  0  0  0
 17 18  1  0  0  0  0
 17 31  1  0  0  0  0
 18 22  1  0  0  0  0
 18 19  2  0  0  0  0
 19 32  1  0  0  0  0
 20 19  1  0  0  0  0
 20 33  1  0  0  0  0
 21 20  2  0  0  0  0
 21 34  1  0  0  0  0
M  END
>  <lm5_entropy_jk>
20.581653483104166

>  <number_of_rotatable_bonds>
4

>  <IC50_NM>
5700

>  <charge>
0

$$$$
