3RJC
 OpenBabel11252210453D

 34 36  0  0  0  0  0  0  0  0999 V2000
   65.7960  154.3460  -50.2790 N   0  0  0  0  0  0  0  0  0  0  0  0
   66.8810  153.5660  -50.5910 C   0  0  0  0  0  0  0  0  0  0  0  0
   67.3020  153.5560  -51.8540 N   0  0  0  0  0  0  0  0  0  0  0  0
   67.3690  152.7640  -49.6120 C   0  0  0  0  0  0  0  0  0  0  0  0
   68.4730  151.8180  -49.7970 C   0  0  0  0  0  0  0  0  0  0  0  0
   68.7120  150.7970  -48.7080 C   0  0  0  0  0  0  0  0  0  0  0  0
   67.6470  150.0520  -48.1550 C   0  0  0  0  0  0  0  0  0  0  0  0
   67.8810  149.0990  -47.1530 C   0  0  0  0  0  0  0  0  0  0  0  0
   69.1870  148.8510  -46.7120 C   0  0  0  0  0  0  0  0  0  0  0  0
   70.2570  149.5560  -47.2820 C   0  0  0  0  0  0  0  0  0  0  0  0
   70.0240  150.5260  -48.2750 C   0  0  0  0  0  0  0  0  0  0  0  0
   69.1610  151.8350  -50.8030 O   0  0  0  0  0  0  0  0  0  0  0  0
   66.4500  152.9710  -48.1550 S   0  0  0  0  0  0  0  0  0  0  0  0
   65.4340  154.0940  -49.0340 C   0  0  0  0  0  0  0  0  0  0  0  0
   64.3120  154.6830  -48.5290 N   0  0  0  0  0  0  0  0  0  0  0  0
   63.6050  154.6030  -47.3420 C   0  0  0  0  0  0  0  0  0  0  0  0
   62.7930  155.6790  -46.9810 C   0  0  0  0  0  0  0  0  0  0  0  0
   62.0690  155.6590  -45.7890 C   0  0  0  0  0  0  0  0  0  0  0  0
   62.1330  154.5500  -44.9450 C   0  0  0  0  0  0  0  0  0  0  0  0
   62.9180  153.4440  -45.3020 C   0  0  0  0  0  0  0  0  0  0  0  0
   63.6410  153.4740  -46.5070 C   0  0  0  0  0  0  0  0  0  0  0  0
   61.3180  156.7220  -45.4430 F   0  0  0  0  0  0  0  0  0  0  0  0
   66.9900  154.2600  -52.5120 H   0  0  0  0  0  0  0  0  0  0  0  0
   68.1480  153.0240  -52.0100 H   0  0  0  0  0  0  0  0  0  0  0  0
   66.6310  150.2110  -48.5070 H   0  0  0  0  0  0  0  0  0  0  0  0
   67.0500  148.5440  -46.7200 H   0  0  0  0  0  0  0  0  0  0  0  0
   69.3680  148.1000  -45.9430 H   0  0  0  0  0  0  0  0  0  0  0  0
   71.2680  149.3370  -46.9530 H   0  0  0  0  0  0  0  0  0  0  0  0
   70.8570  151.0730  -48.7170 H   0  0  0  0  0  0  0  0  0  0  0  0
   63.8620  155.2770  -49.2180 H   0  0  0  0  0  0  0  0  0  0  0  0
   62.7200  156.5490  -47.6220 H   0  0  0  0  0  0  0  0  0  0  0  0
   61.5740  154.5560  -44.0110 H   0  0  0  0  0  0  0  0  0  0  0  0
   62.9730  152.5730  -44.6470 H   0  0  0  0  0  0  0  0  0  0  0  0
   64.2140  152.5980  -46.7840 H   0  0  0  0  0  0  0  0  0  0  0  0
  1 14  2  0  0  0  0
  2  1  1  0  0  0  0
  2  4  2  0  0  0  0
  3  2  1  0  0  0  0
  3 23  1  0  0  0  0
  3 24  1  0  0  0  0
  4 13  1  0  0  0  0
  5  4  1  0  0  0  0
  5  6  1  0  0  0  0
  6 11  2  0  0  0  0
  6  7  1  0  0  0  0
  7  8  2  0  0  0  0
  7 25  1  0  0  0  0
  8  9  1  0  0  0  0
  8 26  1  0  0  0  0
  9 27  1  0  0  0  0
 10  9  2  0  0  0  0
 10 28  1  0  0  0  0
 11 10  1  0  0  0  0
 11 29  1  0  0  0  0
 12  5  2  0  0  0  0
 14 15  1  0  0  0  0
 14 13  1  0  0  0  0
 15 16  1  0  0  0  0
 15 30  1  0  0  0  0
 16 17  2  0  0  0  0
 16 21  1  0  0  0  0
 17 18  1  0  0  0  0
 17 31  1  0  0  0  0
 18 22  1  0  0  0  0
 18 19  2  0  0  0  0
 19 32  1  0  0  0  0
 20 19  1  0  0  0  0
 20 33  1  0  0  0  0
 21 20  2  0  0  0  0
 21 34  1  0  0  0  0
M  END
>  <lm5_entropy_jk>
20.581653483104166

>  <number_of_rotatable_bonds>
4

>  <IC50_NM>
5700

>  <charge>
0

$$$$
