4IVD
 OpenBabel11252210453D

 48 51  0  0  1  0  0  0  0  0999 V2000
  -10.3800   29.0620    1.9640 C   0  0  0  0  0  0  0  0  0  0  0  0
  -11.4620   29.5060    0.9610 C   0  0  1  0  0  0  0  0  0  0  0  0
  -10.7840   29.9780   -0.2000 O   0  0  0  0  0  0  0  0  0  0  0  0
  -12.5010   28.4290    0.6380 C   0  0  0  0  0  0  0  0  0  0  0  0
  -13.7190   28.6890   -0.0390 N   0  0  0  0  0  0  0  0  0  0  0  0
  -14.3790   27.4730    0.0440 C   0  0  0  0  0  0  0  0  0  0  0  0
  -13.5520   26.6000    0.6810 C   0  0  0  0  0  0  0  0  0  0  0  0
  -12.3930   27.1590    1.0750 N   0  0  0  0  0  0  0  0  0  0  0  0
  -13.9370   25.2650    0.8820 C   0  0  0  0  0  0  0  0  0  0  0  0
  -15.1340   24.7970    0.4440 N   0  0  0  0  0  0  0  0  0  0  0  0
  -15.9560   25.6720   -0.1780 C   0  0  0  0  0  0  0  0  0  0  0  0
  -15.6400   27.0050   -0.3940 C   0  0  0  0  0  0  0  0  0  0  0  0
  -16.7610   27.6110   -1.0830 C   0  0  0  0  0  0  0  0  0  0  0  0
  -17.7070   26.6100   -1.2770 C   0  0  0  0  0  0  0  0  0  0  0  0
  -17.2010   25.4250   -0.7070 N   0  0  0  0  0  0  0  0  0  0  0  0
  -14.0980   29.9920   -0.6270 C   0  0  1  0  0  0  0  0  0  0  0  0
  -14.3210   29.9840   -2.1550 C   0  0  0  0  0  0  0  0  0  0  0  0
  -14.6240   31.4180   -2.7010 C   0  0  0  0  0  0  0  0  0  0  0  0
  -15.7770   32.1080   -1.9320 C   0  0  1  0  0  0  0  0  0  0  0  0
  -15.4800   32.1200   -0.4150 C   0  0  0  0  0  0  0  0  0  0  0  0
  -15.2420   30.6800    0.1270 C   0  0  0  0  0  0  0  0  0  0  0  0
  -15.9710   33.5540   -2.4620 C   0  0  0  0  0  0  0  0  0  0  0  0
  -17.4090   34.1290   -2.1960 C   0  0  0  0  0  0  0  0  0  0  0  0
  -17.6200   34.7560   -0.8940 C   0  0  0  0  0  0  0  0  0  0  0  0
  -17.8400   35.2410    0.1250 N   0  0  0  0  0  0  0  0  0  0  0  0
  -12.0370   30.3300    1.4080 H   0  0  0  0  0  0  0  0  0  0  0  0
  -13.2800   24.5680    1.4030 H   0  0  0  0  0  0  0  0  0  0  0  0
  -16.8900   28.6300   -1.4230 H   0  0  0  0  0  0  0  0  0  0  0  0
  -18.6750   26.6510   -1.7700 H   0  0  0  0  0  0  0  0  0  0  0  0
  -13.2370   30.6590   -0.4960 H   0  0  0  0  0  0  0  0  0  0  0  0
  -15.1290   29.2940   -2.4180 H   0  0  0  0  0  0  0  0  0  0  0  0
  -13.4230   29.5790   -2.6400 H   0  0  0  0  0  0  0  0  0  0  0  0
  -13.7240   32.0460   -2.6480 H   0  0  0  0  0  0  0  0  0  0  0  0
  -14.8820   31.3570   -3.7680 H   0  0  0  0  0  0  0  0  0  0  0  0
  -16.6930   31.5190   -2.1090 H   0  0  0  0  0  0  0  0  0  0  0  0
  -14.5980   32.7470   -0.2310 H   0  0  0  0  0  0  0  0  0  0  0  0
  -16.3070   32.5990    0.1260 H   0  0  0  0  0  0  0  0  0  0  0  0
  -16.1470   30.0720    0.0350 H   0  0  0  0  0  0  0  0  0  0  0  0
  -15.0030   30.6990    1.1990 H   0  0  0  0  0  0  0  0  0  0  0  0
  -15.1990   34.2240   -2.0550 H   0  0  0  0  0  0  0  0  0  0  0  0
  -15.7980   33.5500   -3.5480 H   0  0  0  0  0  0  0  0  0  0  0  0
  -18.1650   33.3420   -2.2980 H   0  0  0  0  0  0  0  0  0  0  0  0
  -17.6640   34.8870   -2.9500 H   0  0  0  0  0  0  0  0  0  0  0  0
  -17.6760   24.5250   -0.6510 H   0  0  0  0  0  0  0  0  0  0  0  0
   -9.8940   29.5390   -0.2190 H   0  0  0  0  0  0  0  0  0  0  0  0
   -9.6900   29.8780    2.2110 H   0  0  0  0  0  0  0  0  0  0  0  0
   -9.8150   28.2010    1.5910 H   0  0  0  0  0  0  0  0  0  0  0  0
  -10.8530   28.7460    2.9040 H   0  0  0  0  0  0  0  0  0  0  0  0
  1  2  1  0  0  0  0
  2  4  1  0  0  0  0
  2  3  1  0  0  0  0
  2 26  1  1  0  0  0
  4  5  1  0  0  0  0
  4  8  2  0  0  0  0
  6  7  1  0  0  0  0
  6  5  1  0  0  0  0
  7  8  1  0  0  0  0
  9  7  2  0  0  0  0
  9 10  1  0  0  0  0
 11 12  1  0  0  0  0
 11 10  2  0  0  0  0
 11 15  1  0  0  0  0
 12 13  1  0  0  0  0
 12  6  2  0  0  0  0
 13 14  2  0  0  0  0
 14 15  1  0  0  0  0
 16 17  1  0  0  0  0
 16 21  1  0  0  0  0
 16  5  1  0  0  0  0
 16 30  1  1  0  0  0
 17 18  1  0  0  0  0
 18 19  1  0  0  0  0
 19 20  1  0  0  0  0
 19 22  1  0  0  0  0
 19 35  1  6  0  0  0
 20 21  1  0  0  0  0
 22 23  1  0  0  0  0
 23 24  1  0  0  0  0
 24 25  3  0  0  0  0
 27  9  1  0  0  0  0
 28 13  1  0  0  0  0
 29 14  1  0  0  0  0
 31 17  1  0  0  0  0
 32 17  1  0  0  0  0
 33 18  1  0  0  0  0
 34 18  1  0  0  0  0
 36 20  1  0  0  0  0
 37 20  1  0  0  0  0
 38 21  1  0  0  0  0
 39 21  1  0  0  0  0
 40 22  1  0  0  0  0
 41 22  1  0  0  0  0
 42 23  1  0  0  0  0
 43 23  1  0  0  0  0
 44 15  1  0  0  0  0
 45  3  1  0  0  0  0
 46  1  1  0  0  0  0
 47  1  1  0  0  0  0
 48  1  1  0  0  0  0
M  END
>  <charge>
0

>  <pKi>
9.52

>  <number_of_rotatable_bonds>
4

>  <lm5_entropy_jk>
29.79021667027897

$$$$
