4IVD
 OpenBabel11252210453D

 48 51  0  0  1  0  0  0  0  0999 V2000
  -10.2480   28.8140    1.8270 C   0  0  0  0  0  0  0  0  0  0  0  0
  -11.3570   29.3190    0.8900 C   0  0  1  0  0  0  0  0  0  0  0  0
  -10.7130   29.7090   -0.3170 O   0  0  0  0  0  0  0  0  0  0  0  0
  -12.4830   28.3120    0.6410 C   0  0  0  0  0  0  0  0  0  0  0  0
  -13.6980   28.6250   -0.0220 N   0  0  0  0  0  0  0  0  0  0  0  0
  -14.4050   27.4350    0.0640 C   0  0  0  0  0  0  0  0  0  0  0  0
  -13.6200   26.5400    0.7200 C   0  0  0  0  0  0  0  0  0  0  0  0
  -12.4370   27.0490    1.1050 N   0  0  0  0  0  0  0  0  0  0  0  0
  -14.0590   25.2280    0.9380 C   0  0  0  0  0  0  0  0  0  0  0  0
  -15.2610   24.7950    0.4830 N   0  0  0  0  0  0  0  0  0  0  0  0
  -16.0350   25.6840   -0.1770 C   0  0  0  0  0  0  0  0  0  0  0  0
  -15.6710   27.0020   -0.4010 C   0  0  0  0  0  0  0  0  0  0  0  0
  -16.7490   27.6290   -1.1360 C   0  0  0  0  0  0  0  0  0  0  0  0
  -17.7170   26.6530   -1.3470 C   0  0  0  0  0  0  0  0  0  0  0  0
  -17.2680   25.4620   -0.7420 N   0  0  0  0  0  0  0  0  0  0  0  0
  -14.0520   29.9530   -0.5650 C   0  0  1  0  0  0  0  0  0  0  0  0
  -14.2230   29.9990   -2.0980 C   0  0  0  0  0  0  0  0  0  0  0  0
  -14.5070   31.4480   -2.6080 C   0  0  0  0  0  0  0  0  0  0  0  0
  -15.6850   32.1070   -1.8530 C   0  0  1  0  0  0  0  0  0  0  0  0
  -15.4450   32.0750   -0.3300 C   0  0  0  0  0  0  0  0  0  0  0  0
  -15.2220   30.6190    0.1760 C   0  0  0  0  0  0  0  0  0  0  0  0
  -15.8850   33.5670   -2.3340 C   0  0  0  0  0  0  0  0  0  0  0  0
  -17.3500   34.0810   -2.1180 C   0  0  0  0  0  0  0  0  0  0  0  0
  -17.6510   34.7500   -0.8630 C   0  0  0  0  0  0  0  0  0  0  0  0
  -17.9680   35.2590    0.1160 N   0  0  0  0  0  0  0  0  0  0  0  0
  -11.8380   30.1930    1.3560 H   0  0  0  0  0  0  0  0  0  0  0  0
  -13.4390   24.5210    1.4860 H   0  0  0  0  0  0  0  0  0  0  0  0
  -16.8360   28.6460   -1.4960 H   0  0  0  0  0  0  0  0  0  0  0  0
  -18.6640   26.7140   -1.8760 H   0  0  0  0  0  0  0  0  0  0  0  0
  -13.1940   30.6100   -0.3750 H   0  0  0  0  0  0  0  0  0  0  0  0
  -15.0260   29.3210   -2.4030 H   0  0  0  0  0  0  0  0  0  0  0  0
  -13.3140   29.5980   -2.5670 H   0  0  0  0  0  0  0  0  0  0  0  0
  -13.6130   32.0760   -2.5040 H   0  0  0  0  0  0  0  0  0  0  0  0
  -14.7350   31.4190   -3.6840 H   0  0  0  0  0  0  0  0  0  0  0  0
  -16.5860   31.5130   -2.0820 H   0  0  0  0  0  0  0  0  0  0  0  0
  -14.5730   32.6990   -0.0980 H   0  0  0  0  0  0  0  0  0  0  0  0
  -16.2960   32.5370    0.1900 H   0  0  0  0  0  0  0  0  0  0  0  0
  -16.1270   30.0180    0.0420 H   0  0  0  0  0  0  0  0  0  0  0  0
  -15.0160   30.6080    1.2540 H   0  0  0  0  0  0  0  0  0  0  0  0
  -15.1530   34.2440   -1.8690 H   0  0  0  0  0  0  0  0  0  0  0  0
  -15.6720   33.6050   -3.4130 H   0  0  0  0  0  0  0  0  0  0  0  0
  -18.0470   33.2400   -2.1490 H   0  0  0  0  0  0  0  0  0  0  0  0
  -17.6480   34.7630   -2.9280 H   0  0  0  0  0  0  0  0  0  0  0  0
  -17.7580   24.5700   -0.7050 H   0  0  0  0  0  0  0  0  0  0  0  0
   -9.7540   29.4680   -0.2380 H   0  0  0  0  0  0  0  0  0  0  0  0
   -9.5170   29.5990    2.0580 H   0  0  0  0  0  0  0  0  0  0  0  0
   -9.7370   27.9430    1.4050 H   0  0  0  0  0  0  0  0  0  0  0  0
  -10.6870   28.4940    2.7810 H   0  0  0  0  0  0  0  0  0  0  0  0
  1  2  1  0  0  0  0
  2  4  1  0  0  0  0
  2  3  1  0  0  0  0
  2 26  1  1  0  0  0
  4  5  1  0  0  0  0
  4  8  2  0  0  0  0
  6  7  1  0  0  0  0
  6  5  1  0  0  0  0
  7  8  1  0  0  0  0
  9  7  2  0  0  0  0
  9 10  1  0  0  0  0
 11 12  1  0  0  0  0
 11 10  2  0  0  0  0
 11 15  1  0  0  0  0
 12 13  1  0  0  0  0
 12  6  2  0  0  0  0
 13 14  2  0  0  0  0
 14 15  1  0  0  0  0
 16 17  1  0  0  0  0
 16 21  1  0  0  0  0
 16  5  1  0  0  0  0
 16 30  1  1  0  0  0
 17 18  1  0  0  0  0
 18 19  1  0  0  0  0
 19 20  1  0  0  0  0
 19 22  1  0  0  0  0
 19 35  1  6  0  0  0
 20 21  1  0  0  0  0
 22 23  1  0  0  0  0
 23 24  1  0  0  0  0
 24 25  3  0  0  0  0
 27  9  1  0  0  0  0
 28 13  1  0  0  0  0
 29 14  1  0  0  0  0
 31 17  1  0  0  0  0
 32 17  1  0  0  0  0
 33 18  1  0  0  0  0
 34 18  1  0  0  0  0
 36 20  1  0  0  0  0
 37 20  1  0  0  0  0
 38 21  1  0  0  0  0
 39 21  1  0  0  0  0
 40 22  1  0  0  0  0
 41 22  1  0  0  0  0
 42 23  1  0  0  0  0
 43 23  1  0  0  0  0
 44 15  1  0  0  0  0
 45  3  1  0  0  0  0
 46  1  1  0  0  0  0
 47  1  1  0  0  0  0
 48  1  1  0  0  0  0
M  END
>  <charge>
0

>  <pKi>
9.52

>  <number_of_rotatable_bonds>
4

>  <lm5_entropy_jk>
29.79021667027897

$$$$
