3RTT
 OpenBabel11252210453D

 38 39  0  0  1  0  0  0  0  0999 V2000
    8.5090   26.4990    1.0220 C   0  0  2  0  0  0  0  0  0  0  0  0
    8.8670   24.0810    0.7040 N   0  0  0  0  0  0  0  0  0  0  0  0
    9.2440   26.3250    3.9100 O   0  0  0  0  0  0  0  0  0  0  0  0
    8.0310   27.1010    3.7120 S   0  0  0  0  0  0  0  0  0  0  0  0
    2.9140   23.9990    4.8770 C   0  0  0  0  0  0  0  0  0  0  0  0
    7.7680   27.3030    2.0580 N   0  0  0  0  0  0  0  0  0  0  0  0
    8.6170   22.8330    0.0490 O   0  0  0  0  0  0  0  0  0  0  0  0
    8.6270   27.4400   -0.2100 C   0  0  0  0  0  0  0  0  0  0  0  0
    7.9250   28.3990    4.3400 O   0  0  0  0  0  0  0  0  0  0  0  0
    7.4130   28.6390    1.4820 C   0  0  0  0  0  0  0  0  0  0  0  0
    6.7740   24.8430    0.2410 O   0  0  0  0  0  0  0  0  0  0  0  0
    2.9200   22.8280    5.6460 C   0  0  0  0  0  0  0  0  0  0  0  0
    8.4000   28.8560    0.3390 C   0  0  0  0  0  0  0  0  0  0  0  0
    6.6520   26.1990    4.2070 C   0  0  0  0  0  0  0  0  0  0  0  0
    6.6880   24.5980    4.3650 C   0  0  0  0  0  0  0  0  0  0  0  0
    5.3580   23.9970    4.8280 C   0  0  0  0  0  0  0  0  0  0  0  0
    4.1280   24.5740    4.4670 C   0  0  0  0  0  0  0  0  0  0  0  0
    5.3540   22.8230    5.6020 C   0  0  0  0  0  0  0  0  0  0  0  0
    4.1390   22.2400    6.0100 C   0  0  0  0  0  0  0  0  0  0  0  0
    7.9260   25.0820    0.6480 C   0  0  0  0  0  0  0  0  0  0  0  0
    9.5340   26.3110    1.3830 H   0  0  0  0  0  0  0  0  0  0  0  0
    9.8160   24.2260    1.0560 H   0  0  0  0  0  0  0  0  0  0  0  0
    1.9670   24.4530    4.5880 H   0  0  0  0  0  0  0  0  0  0  0  0
    8.6290   22.1650    0.8000 H   0  0  0  0  0  0  0  0  0  0  0  0
    9.5950   27.3380   -0.7280 H   0  0  0  0  0  0  0  0  0  0  0  0
    7.8490   27.2130   -0.9530 H   0  0  0  0  0  0  0  0  0  0  0  0
    6.3870   28.6230    1.0770 H   0  0  0  0  0  0  0  0  0  0  0  0
    7.4550   29.4730    2.2060 H   0  0  0  0  0  0  0  0  0  0  0  0
    1.9790   22.3700    5.9470 H   0  0  0  0  0  0  0  0  0  0  0  0
    8.0040   29.5530   -0.4180 H   0  0  0  0  0  0  0  0  0  0  0  0
    9.3370   29.2910    0.7160 H   0  0  0  0  0  0  0  0  0  0  0  0
    6.5180   26.7330    5.1450 H   0  0  0  0  0  0  0  0  0  0  0  0
    5.9950   26.5810    3.4260 H   0  0  0  0  0  0  0  0  0  0  0  0
    6.9800   24.0980    3.4270 H   0  0  0  0  0  0  0  0  0  0  0  0
    7.4820   24.3010    5.0690 H   0  0  0  0  0  0  0  0  0  0  0  0
    4.1020   25.4650    3.8520 H   0  0  0  0  0  0  0  0  0  0  0  0
    6.2960   22.3590    5.8780 H   0  0  0  0  0  0  0  0  0  0  0  0
    4.1320   21.3280    6.6030 H   0  0  0  0  0  0  0  0  0  0  0  0
  1  6  1  0  0  0  0
  1  8  1  0  0  0  0
  1 20  1  0  0  0  0
  1 21  1  1  0  0  0
  2  7  1  0  0  0  0
  2 20  1  0  0  0  0
  2 22  1  0  0  0  0
  3  4  2  0  0  0  0
  4  6  1  0  0  0  0
  4  9  2  0  0  0  0
  4 14  1  0  0  0  0
  5 12  2  0  0  0  0
  5 17  1  0  0  0  0
  5 23  1  0  0  0  0
  6 10  1  0  0  0  0
  7 24  1  0  0  0  0
  8 13  1  0  0  0  0
  8 25  1  0  0  0  0
  8 26  1  0  0  0  0
 10 13  1  0  0  0  0
 10 27  1  0  0  0  0
 10 28  1  0  0  0  0
 11 20  2  0  0  0  0
 12 19  1  0  0  0  0
 12 29  1  0  0  0  0
 13 30  1  0  0  0  0
 13 31  1  0  0  0  0
 14 15  1  0  0  0  0
 14 32  1  0  0  0  0
 14 33  1  0  0  0  0
 15 16  1  0  0  0  0
 15 34  1  0  0  0  0
 15 35  1  0  0  0  0
 16 17  2  0  0  0  0
 16 18  1  0  0  0  0
 17 36  1  0  0  0  0
 18 19  2  0  0  0  0
 18 37  1  0  0  0  0
 19 38  1  0  0  0  0
M  END
>  <lm5_entropy_jk>
24.875493706853458

>  <number_of_rotatable_bonds>
6

>  <deltaG_kcalmol>
-10.64

>  <charge>
0

$$$$
