3KXM
 OpenBabel11252210453D

 29 30  0  0  1  0  0  0  0  0999 V2000
   23.3390    7.1950   18.2200 C   0  0  0  0  0  0  0  0  0  0  0  0
   23.0700    6.6060   19.4710 C   0  0  0  0  0  0  0  0  0  0  0  0
   22.1570    7.2300   20.3980 C   0  0  0  0  0  0  0  0  0  0  0  0
   21.4670    8.4000   20.0200 C   0  0  0  0  0  0  0  0  0  0  0  0
   21.6910    8.9210   18.7560 C   0  0  0  0  0  0  0  0  0  0  0  0
   22.6410    8.3340   17.8650 C   0  0  0  0  0  0  0  0  0  0  0  0
   23.5870    5.4310   20.0110 N   0  0  0  0  0  0  0  0  0  0  0  0
   23.0160    5.3100   21.2360 C   0  0  0  0  0  0  0  0  0  0  0  0
   22.1520    6.4080   21.5280 N   0  0  0  0  0  0  0  0  0  0  0  0
   23.2500    3.9820   22.3940 S   0  0  0  0  0  0  0  0  0  0  0  0
   23.3760    2.5160   21.3650 C   0  0  0  0  0  0  0  0  0  0  0  0
   24.7400    2.3600   20.7130 C   0  0  0  0  0  0  0  0  0  0  0  0
   24.7770    1.3450   19.7570 N   0  0  0  0  0  0  0  0  0  0  0  0
   25.7140    3.0380   20.9820 O   0  0  0  0  0  0  0  0  0  0  0  0
   26.0110    0.9430   19.0470 C   0  0  0  0  0  0  0  0  0  0  0  0
   21.4340    6.6200   22.7900 C   0  0  0  0  0  0  0  0  0  0  0  0
   24.6530    6.3490   17.1680 Br  0  0  0  0  0  0  0  0  0  0  0  0
   22.9620    9.1360   16.1760 Br  0  0  0  0  0  0  0  0  0  0  0  0
   20.7380   10.4660   18.1860 Br  0  0  0  0  0  0  0  0  0  0  0  0
   20.2540    9.1670   21.2590 Br  0  0  0  0  0  0  0  0  0  0  0  0
   21.7350    7.5930   23.2670 H   0  0  0  0  0  0  0  0  0  0  0  0
   22.5450    2.4780   20.6070 H   0  0  0  0  0  0  0  0  0  0  0  0
   23.9660    0.7390   19.5950 H   0  0  0  0  0  0  0  0  0  0  0  0
   26.7390    1.7890   18.9910 H   0  0  0  0  0  0  0  0  0  0  0  0
   21.6450    5.7890   23.5200 H   0  0  0  0  0  0  0  0  0  0  0  0
   23.1830    1.6450   22.0630 H   0  0  0  0  0  0  0  0  0  0  0  0
   25.7360    0.6360   18.0000 H   0  0  0  0  0  0  0  0  0  0  0  0
   20.3230    6.6310   22.6110 H   0  0  0  0  0  0  0  0  0  0  0  0
   26.4860    0.0680   19.5650 H   0  0  0  0  0  0  0  0  0  0  0  0
  1  2  2  0  0  0  0
  1  6  1  0  0  0  0
  1 17  1  0  0  0  0
  2  3  1  0  0  0  0
  2  7  1  0  0  0  0
  3  4  2  0  0  0  0
  3  9  1  0  0  0  0
  4  5  1  0  0  0  0
  4 20  1  0  0  0  0
  5  6  2  0  0  0  0
  5 19  1  0  0  0  0
  6 18  1  0  0  0  0
  7  8  2  0  0  0  0
  8  9  1  0  0  0  0
  8 10  1  0  0  0  0
  9 16  1  0  0  0  0
 10 11  1  0  0  0  0
 11 12  1  0  0  0  0
 11 22  1  0  0  0  0
 11 26  1  0  0  0  0
 12 13  1  0  0  0  0
 12 14  2  0  0  0  0
 13 15  1  0  0  0  0
 13 23  1  0  0  0  0
 15 24  1  0  0  0  0
 15 27  1  0  0  0  0
 15 29  1  0  0  0  0
 16 21  1  0  0  0  0
 16 25  1  0  0  0  0
 16 28  1  0  0  0  0
M  END
>  <Ki_NM>
280

>  <charge>
0

>  <number_of_rotatable_bonds>
4

>  <lm5_entropy_jk>
36.06614597483307

$$$$
