3EKX
 OpenBabel11252210453D

 86 89  0  0  1  0  0  0  0  0999 V2000
    2.8270   -4.4280   17.0020 C   0  0  2  0  0  0  0  0  0  0  0  0
    3.6920   -5.3810   17.8490 C   0  0  1  0  0  0  0  0  0  0  0  0
    3.0150   -6.7570   17.9300 C   0  0  0  0  0  0  0  0  0  0  0  0
    2.7010   -7.3410   16.5460 C   0  0  0  0  0  0  0  0  0  0  0  0
    1.9400   -6.3620   15.6380 C   0  0  0  0  0  0  0  0  0  0  0  0
    2.6160   -4.9820   15.5800 C   0  0  0  0  0  0  0  0  0  0  0  0
    4.8800   -3.0610   16.4170 N   0  3  1  0  0  0  0  0  0  0  0  0
    5.7710   -4.1140   17.0960 C   0  0  1  0  0  0  0  0  0  0  0  0
    5.1070   -5.4880   17.2530 C   0  0  0  0  0  0  0  0  0  0  0  0
    3.4790   -3.0350   17.0270 C   0  0  0  0  0  0  0  0  0  0  0  0
    7.0670   -4.3050   16.2530 C   0  0  0  0  0  0  0  0  0  0  0  0
    8.1460   -4.7450   16.9730 N   0  0  0  0  0  0  0  0  0  0  0  0
    9.5020   -5.0770   16.3510 C   0  0  0  0  0  0  0  0  0  0  0  0
    9.9910   -3.8320   15.6020 C   0  0  0  0  0  0  0  0  0  0  0  0
    9.2990   -6.2740   15.4130 C   0  0  0  0  0  0  0  0  0  0  0  0
   10.4280   -5.4410   17.5190 C   0  0  0  0  0  0  0  0  0  0  0  0
    7.0500   -4.0330   15.0570 O   0  0  0  0  0  0  0  0  0  0  0  0
    5.5590   -1.7100   16.5770 C   0  0  0  0  0  0  0  0  0  0  0  0
    4.8950   -0.5250   15.8260 C   0  0  2  0  0  0  0  0  0  0  0  0
    5.3900   -0.3040   14.3580 C   0  0  1  0  0  0  0  0  0  0  0  0
    5.1130    0.6520   16.5880 O   0  0  0  0  0  0  0  0  0  0  0  0
    4.5670    0.8020   13.8230 N   0  0  0  0  0  0  0  0  0  0  0  0
    6.8860    0.0230   14.2940 C   0  0  0  0  0  0  0  0  0  0  0  0
    3.7310    0.6520   12.7020 C   0  0  0  0  0  0  0  0  0  0  0  0
    3.6270   -0.4260   12.1420 O   0  0  0  0  0  0  0  0  0  0  0  0
    3.0180    1.8990   12.2660 C   0  0  0  0  0  0  0  0  0  0  0  0
    3.8140    2.9570   11.8070 C   0  0  0  0  0  0  0  0  0  0  0  0
    3.2370    4.0550   11.1670 C   0  0  0  0  0  0  0  0  0  0  0  0
    1.8530    4.1250   11.0290 C   0  0  0  0  0  0  0  0  0  0  0  0
    1.0590    3.1190   11.6040 C   0  0  0  0  0  0  0  0  0  0  0  0
    1.6150    1.9720   12.2210 C   0  0  0  0  0  0  0  0  0  0  0  0
   -0.2870    3.3200   11.4190 O   0  0  0  0  0  0  0  0  0  0  0  0
    0.7350    0.8950   12.7570 C   0  0  0  0  0  0  0  0  0  0  0  0
    7.5360   -0.3570   12.6450 S   0  0  0  0  0  0  0  0  0  0  0  0
    7.4730    1.1250   11.6940 C   0  0  0  0  0  0  0  0  0  0  0  0
    7.6030    0.9320   10.3120 C   0  0  0  0  0  0  0  0  0  0  0  0
    7.5680    2.0410    9.4640 C   0  0  0  0  0  0  0  0  0  0  0  0
    7.4280    3.3310    9.9940 C   0  0  0  0  0  0  0  0  0  0  0  0
    7.3210    3.5090   11.3740 C   0  0  0  0  0  0  0  0  0  0  0  0
    7.3410    2.4020   12.2340 C   0  0  0  0  0  0  0  0  0  0  0  0
    1.8290   -4.3370   17.5070 H   0  0  0  0  0  0  0  0  0  0  0  0
    3.7840   -4.9720   18.8890 H   0  0  0  0  0  0  0  0  0  0  0  0
    2.0770   -6.6550   18.5180 H   0  0  0  0  0  0  0  0  0  0  0  0
    3.7020   -7.4510   18.4680 H   0  0  0  0  0  0  0  0  0  0  0  0
    2.1030   -8.2690   16.7050 H   0  0  0  0  0  0  0  0  0  0  0  0
    3.6700   -7.6350   16.0850 H   0  0  0  0  0  0  0  0  0  0  0  0
    0.9010   -6.2500   16.0180 H   0  0  0  0  0  0  0  0  0  0  0  0
    1.9090   -6.7830   14.6080 H   0  0  0  0  0  0  0  0  0  0  0  0
    3.6040   -5.1060   15.0860 H   0  0  0  0  0  0  0  0  0  0  0  0
    2.0040   -4.2650   14.9860 H   0  0  0  0  0  0  0  0  0  0  0  0
    5.9990   -3.7310   18.1280 H   0  0  0  0  0  0  0  0  0  0  0  0
    5.0770   -6.0340   16.2820 H   0  0  0  0  0  0  0  0  0  0  0  0
    5.7220   -6.1090   17.9600 H   0  0  0  0  0  0  0  0  0  0  0  0
    3.5590   -2.6910   18.0980 H   0  0  0  0  0  0  0  0  0  0  0  0
    2.8350   -2.3070   16.4630 H   0  0  0  0  0  0  0  0  0  0  0  0
    7.9780   -5.1570   17.8950 H   0  0  0  0  0  0  0  0  0  0  0  0
   10.8510   -4.0890   14.9500 H   0  0  0  0  0  0  0  0  0  0  0  0
    9.1800   -3.4180   14.9540 H   0  0  0  0  0  0  0  0  0  0  0  0
   10.2970   -3.0460   16.3280 H   0  0  0  0  0  0  0  0  0  0  0  0
    8.5160   -6.0260   14.6670 H   0  0  0  0  0  0  0  0  0  0  0  0
   10.2470   -6.5160   14.8910 H   0  0  0  0  0  0  0  0  0  0  0  0
    8.9610   -7.1650   15.9930 H   0  0  0  0  0  0  0  0  0  0  0  0
   11.4300   -5.7160   17.1200 H   0  0  0  0  0  0  0  0  0  0  0  0
   10.5580   -4.5780   18.2090 H   0  0  0  0  0  0  0  0  0  0  0  0
   10.0360   -6.3210   18.0830 H   0  0  0  0  0  0  0  0  0  0  0  0
    6.6380   -1.8000   16.2600 H   0  0  0  0  0  0  0  0  0  0  0  0
    5.5760   -1.4290   17.6730 H   0  0  0  0  0  0  0  0  0  0  0  0
    3.7800   -0.6080   15.8370 H   0  0  0  0  0  0  0  0  0  0  0  0
    5.1620   -1.2440   13.7920 H   0  0  0  0  0  0  0  0  0  0  0  0
    6.1300    0.7260   16.8400 H   0  0  0  0  0  0  0  0  0  0  0  0
    4.7780    1.7330   14.2280 H   0  0  0  0  0  0  0  0  0  0  0  0
    7.4830   -0.6010   15.0060 H   0  0  0  0  0  0  0  0  0  0  0  0
    7.0720    1.0800   14.6140 H   0  0  0  0  0  0  0  0  0  0  0  0
    4.8980    2.9250   11.9450 H   0  0  0  0  0  0  0  0  0  0  0  0
    3.8800    4.8450   10.7640 H   0  0  0  0  0  0  0  0  0  0  0  0
    1.3900    4.9310   10.4530 H   0  0  0  0  0  0  0  0  0  0  0  0
   -0.8600    3.0050   12.1920 H   0  0  0  0  0  0  0  0  0  0  0  0
    0.4340    0.2090   11.9220 H   0  0  0  0  0  0  0  0  0  0  0  0
    1.2600    0.2850   13.5310 H   0  0  0  0  0  0  0  0  0  0  0  0
   -0.1940    1.3040   13.2220 H   0  0  0  0  0  0  0  0  0  0  0  0
    7.7340   -0.0670    9.8910 H   0  0  0  0  0  0  0  0  0  0  0  0
    7.6430    1.9060    8.3810 H   0  0  0  0  0  0  0  0  0  0  0  0
    7.3980    4.2000    9.3300 H   0  0  0  0  0  0  0  0  0  0  0  0
    7.2120    4.5120   11.7970 H   0  0  0  0  0  0  0  0  0  0  0  0
    7.2440    2.5760   13.3070 H   0  0  0  0  0  0  0  0  0  0  0  0
    4.7870   -3.3020   15.3900 H   0  0  0  0  0  0  0  0  0  0  0  0
  1  2  1  0  0  0  0
  1  6  1  0  0  0  0
  1 10  1  0  0  0  0
  1 41  1  1  0  0  0
  2  3  1  0  0  0  0
  2  9  1  0  0  0  0
  2 42  1  1  0  0  0
  3  4  1  0  0  0  0
  3 43  1  0  0  0  0
  3 44  1  0  0  0  0
  4  5  1  0  0  0  0
  4 45  1  0  0  0  0
  4 46  1  0  0  0  0
  5  6  1  0  0  0  0
  5 47  1  0  0  0  0
  5 48  1  0  0  0  0
  6 49  1  0  0  0  0
  6 50  1  0  0  0  0
  7  8  1  0  0  0  0
  7 10  1  0  0  0  0
  7 18  1  0  0  0  0
  7 86  1  6  0  0  0
  8  9  1  0  0  0  0
  8 11  1  0  0  0  0
  8 51  1  1  0  0  0
  9 52  1  0  0  0  0
  9 53  1  0  0  0  0
 10 54  1  0  0  0  0
 10 55  1  0  0  0  0
 11 12  1  0  0  0  0
 11 17  2  0  0  0  0
 12 13  1  0  0  0  0
 12 56  1  0  0  0  0
 13 14  1  0  0  0  0
 13 15  1  0  0  0  0
 13 16  1  0  0  0  0
 14 57  1  0  0  0  0
 14 58  1  0  0  0  0
 14 59  1  0  0  0  0
 15 60  1  0  0  0  0
 15 61  1  0  0  0  0
 15 62  1  0  0  0  0
 16 63  1  0  0  0  0
 16 64  1  0  0  0  0
 16 65  1  0  0  0  0
 18 19  1  0  0  0  0
 18 66  1  0  0  0  0
 18 67  1  0  0  0  0
 19 20  1  0  0  0  0
 19 21  1  0  0  0  0
 19 68  1  6  0  0  0
 20 22  1  0  0  0  0
 20 23  1  0  0  0  0
 20 69  1  6  0  0  0
 21 70  1  0  0  0  0
 22 24  1  0  0  0  0
 22 71  1  0  0  0  0
 23 34  1  0  0  0  0
 23 72  1  0  0  0  0
 23 73  1  0  0  0  0
 24 25  2  0  0  0  0
 24 26  1  0  0  0  0
 26 27  2  0  0  0  0
 26 31  1  0  0  0  0
 27 28  1  0  0  0  0
 27 74  1  0  0  0  0
 28 29  2  0  0  0  0
 28 75  1  0  0  0  0
 29 30  1  0  0  0  0
 29 76  1  0  0  0  0
 30 31  2  0  0  0  0
 30 32  1  0  0  0  0
 31 33  1  0  0  0  0
 32 77  1  0  0  0  0
 33 78  1  0  0  0  0
 33 79  1  0  0  0  0
 33 80  1  0  0  0  0
 34 35  1  0  0  0  0
 35 36  2  0  0  0  0
 35 40  1  0  0  0  0
 36 37  1  0  0  0  0
 36 81  1  0  0  0  0
 37 38  2  0  0  0  0
 37 82  1  0  0  0  0
 38 39  1  0  0  0  0
 38 83  1  0  0  0  0
 39 40  2  0  0  0  0
 39 84  1  0  0  0  0
 40 85  1  0  0  0  0
M  CHG  1   7   1
M  END
>  <charge>
1

>  <KI_NM>
0.07

>  <number_of_rotatable_bonds>
12

>  <lm5_entropy_jk>
45.93606948979449

>  <ligand_crystal_conformation>
B

$$$$
