4FK6
 OpenBabel11252210453D

 46 50  0  0  1  0  0  0  0  0999 V2000
   -8.8410   28.1190    3.2960 C   0  0  0  0  0  0  0  0  0  0  0  0
  -10.3570   27.6740    3.0120 S   0  0  0  0  0  0  0  0  0  0  0  0
  -10.3120   28.2880    1.5130 N   0  0  0  0  0  0  0  0  0  0  0  0
  -11.5290   28.9940    0.9050 C   0  0  0  0  0  0  0  0  0  0  0  0
  -12.7210   28.0820    0.7220 C   0  0  0  0  0  0  0  0  0  0  0  0
  -13.9250   28.4430    0.0650 N   0  0  0  0  0  0  0  0  0  0  0  0
  -14.2250   29.8360   -0.3930 C   0  0  1  0  0  0  0  0  0  0  0  0
  -13.8160   30.1700   -1.8580 C   0  0  1  0  0  0  0  0  0  0  0  0
  -15.0760   29.8330   -2.6340 C   0  0  0  0  0  0  0  0  0  0  0  0
  -15.9960   30.7280   -1.8030 C   0  0  1  0  0  0  0  0  0  0  0  0
  -15.6950   30.2820   -0.3450 C   0  0  0  0  0  0  0  0  0  0  0  0
  -13.7990   31.7170   -2.0410 C   0  0  0  0  0  0  0  0  0  0  0  0
  -15.3110   32.0900   -2.0180 C   0  0  0  0  0  0  0  0  0  0  0  0
  -14.6480   27.2430    0.1060 C   0  0  0  0  0  0  0  0  0  0  0  0
  -15.8910   26.7770   -0.4180 C   0  0  0  0  0  0  0  0  0  0  0  0
  -16.9860   27.3540   -1.1880 C   0  0  0  0  0  0  0  0  0  0  0  0
  -17.9080   26.3480   -1.4320 C   0  0  0  0  0  0  0  0  0  0  0  0
  -17.4250   25.1830   -0.8210 N   0  0  0  0  0  0  0  0  0  0  0  0
  -16.2180   25.4410   -0.2270 C   0  0  0  0  0  0  0  0  0  0  0  0
  -15.4370   24.5560    0.4230 N   0  0  0  0  0  0  0  0  0  0  0  0
  -14.2650   25.0050    0.9200 C   0  0  0  0  0  0  0  0  0  0  0  0
  -13.8690   26.3340    0.7630 C   0  0  0  0  0  0  0  0  0  0  0  0
  -12.6980   26.8280    1.1780 N   0  0  0  0  0  0  0  0  0  0  0  0
  -10.1490   26.2510    3.1230 O   0  0  0  0  0  0  0  0  0  0  0  0
  -10.9680   28.5460    3.9660 O   0  0  0  0  0  0  0  0  0  0  0  0
  -11.2930   29.4070   -0.0870 H   0  0  0  0  0  0  0  0  0  0  0  0
  -11.8590   29.8390    1.5320 H   0  0  0  0  0  0  0  0  0  0  0  0
  -13.6680   30.5150    0.2640 H   0  0  0  0  0  0  0  0  0  0  0  0
  -12.9120   29.6490   -2.2030 H   0  0  0  0  0  0  0  0  0  0  0  0
  -15.3110   28.7650   -2.5850 H   0  0  0  0  0  0  0  0  0  0  0  0
  -15.0340   30.1350   -3.6880 H   0  0  0  0  0  0  0  0  0  0  0  0
  -17.0610   30.7080   -2.0930 H   0  0  0  0  0  0  0  0  0  0  0  0
  -16.3310   29.4780    0.0240 H   0  0  0  0  0  0  0  0  0  0  0  0
  -15.8180   31.1210    0.3470 H   0  0  0  0  0  0  0  0  0  0  0  0
  -13.3580   32.0020   -3.0050 H   0  0  0  0  0  0  0  0  0  0  0  0
  -13.2400   32.2240   -1.2440 H   0  0  0  0  0  0  0  0  0  0  0  0
  -15.6260   32.5250   -2.9780 H   0  0  0  0  0  0  0  0  0  0  0  0
  -15.5680   32.8130   -1.2320 H   0  0  0  0  0  0  0  0  0  0  0  0
  -17.1220   28.3530   -1.5730 H   0  0  0  0  0  0  0  0  0  0  0  0
  -18.8420   26.3740   -1.9860 H   0  0  0  0  0  0  0  0  0  0  0  0
  -13.6230   24.2920    1.4360 H   0  0  0  0  0  0  0  0  0  0  0  0
  -17.8970   24.2820   -0.7590 H   0  0  0  0  0  0  0  0  0  0  0  0
   -9.5270   28.9000    1.6780 H   0  0  0  0  0  0  0  0  0  0  0  0
   -8.8110   27.6830    4.2900 H   0  0  0  0  0  0  0  0  0  0  0  0
   -8.9090   29.2020    3.3010 H   0  0  0  0  0  0  0  0  0  0  0  0
   -8.3140   27.5550    2.5340 H   0  0  0  0  0  0  0  0  0  0  0  0
  1  2  1  0  0  0  0
  3  2  1  0  0  0  0
  4  5  1  0  0  0  0
  4  3  1  0  0  0  0
  5 23  2  0  0  0  0
  5  6  1  0  0  0  0
  7  8  1  0  0  0  0
  7  6  1  0  0  0  0
  7 28  1  1  0  0  0
  8 29  1  6  0  0  0
  9 10  1  0  0  0  0
  9  8  1  0  0  0  0
 10 11  1  0  0  0  0
 10 13  1  0  0  0  0
 10 32  1  6  0  0  0
 11  7  1  0  0  0  0
 12 13  1  0  0  0  0
 12  8  1  0  0  0  0
 14 15  2  0  0  0  0
 14 22  1  0  0  0  0
 14  6  1  0  0  0  0
 15 16  1  0  0  0  0
 15 19  1  0  0  0  0
 16 17  2  0  0  0  0
 17 18  1  0  0  0  0
 19 18  1  0  0  0  0
 19 20  2  0  0  0  0
 21 22  2  0  0  0  0
 21 20  1  0  0  0  0
 22 23  1  0  0  0  0
 24  2  2  0  0  0  0
 25  2  2  0  0  0  0
 26  4  1  0  0  0  0
 27  4  1  0  0  0  0
 30  9  1  0  0  0  0
 31  9  1  0  0  0  0
 33 11  1  0  0  0  0
 34 11  1  0  0  0  0
 35 12  1  0  0  0  0
 36 12  1  0  0  0  0
 37 13  1  0  0  0  0
 38 13  1  0  0  0  0
 39 16  1  0  0  0  0
 40 17  1  0  0  0  0
 41 21  1  0  0  0  0
 42 18  1  0  0  0  0
 43  3  1  0  0  0  0
 44  1  1  0  0  0  0
 45  1  1  0  0  0  0
 46  1  1  0  0  0  0
M  END
>  <charge>
0

>  <pKi>
9.7

>  <number_of_rotatable_bonds>
4

>  <lm5_entropy_jk>
31.79286729643965

$$$$
