1ZOG
 OpenBabel11252210453D

 19 20  0  0  1  0  0  0  0  0999 V2000
   21.6280    9.0340   18.7370 C   0  0  0  0  0  0  0  0  0  0  0  0
   22.5890    8.4160   17.8760 C   0  0  0  0  0  0  0  0  0  0  0  0
   23.2670    7.2740   18.2600 C   0  0  0  0  0  0  0  0  0  0  0  0
   21.3770    8.5310   20.0040 C   0  0  0  0  0  0  0  0  0  0  0  0
   21.9510    6.6380   21.5990 N   0  0  0  0  0  0  0  0  0  0  0  0
   22.0510    7.3630   20.4080 C   0  0  0  0  0  0  0  0  0  0  0  0
   22.9670    6.7150   19.5120 C   0  0  0  0  0  0  0  0  0  0  0  0
   23.4190    5.5730   20.1730 N   0  0  0  0  0  0  0  0  0  0  0  0
   22.7560    5.5570   21.4390 C   0  0  0  0  0  0  0  0  0  0  0  0
   23.1820    2.8150   21.7070 C   0  0  0  0  0  0  0  0  0  0  0  0
   20.1890    9.2380   21.2850 Br  0  0  0  0  0  0  0  0  0  0  0  0
   20.7210   10.5860   18.1250 Br  0  0  0  0  0  0  0  0  0  0  0  0
   22.9740    9.1780   16.1820 Br  0  0  0  0  0  0  0  0  0  0  0  0
   24.6120    6.3820   17.2770 Br  0  0  0  0  0  0  0  0  0  0  0  0
   23.0240    4.3180   22.6820 S   0  0  0  0  0  0  0  0  0  0  0  0
   24.0260    4.8510   19.7850 H   0  0  0  0  0  0  0  0  0  0  0  0
   22.3470    2.6800   20.9800 H   0  0  0  0  0  0  0  0  0  0  0  0
   23.1430    1.9600   22.4320 H   0  0  0  0  0  0  0  0  0  0  0  0
   24.1530    2.7600   21.1630 H   0  0  0  0  0  0  0  0  0  0  0  0
  1  2  2  0  0  0  0
  1  4  1  0  0  0  0
  1 12  1  0  0  0  0
  2  3  1  0  0  0  0
  2 13  1  0  0  0  0
  3  7  2  0  0  0  0
  3 14  1  0  0  0  0
  4  6  2  0  0  0  0
  4 11  1  0  0  0  0
  5  6  1  0  0  0  0
  5  9  2  0  0  0  0
  6  7  1  0  0  0  0
  7  8  1  0  0  0  0
  8  9  1  0  0  0  0
  8 16  1  0  0  0  0
  9 15  1  0  0  0  0
 10 15  1  0  0  0  0
 10 17  1  0  0  0  0
 10 18  1  0  0  0  0
 10 19  1  0  0  0  0
M  END
>  <charge>
0

>  <Ki_NM>
70

>  <number_of_rotatable_bonds>
1

>  <lm5_entropy_jk>
23.154104138289753

$$$$
