3N2V
 OpenBabel11252210453D

 42 43  0  0  0  0  0  0  0  0999 V2000
    8.1330   22.6770    0.7970 O   0  0  0  0  0  0  0  0  0  0  0  0
    8.6170   23.8730    1.3710 N   0  0  0  0  0  0  0  0  0  0  0  0
    8.0150   24.9920    0.7100 C   0  0  0  0  0  0  0  0  0  0  0  0
    8.7530   26.3080    0.9730 C   0  0  0  0  0  0  0  0  0  0  0  0
    6.9650   24.8050    0.1160 O   0  0  0  0  0  0  0  0  0  0  0  0
    7.8990   27.1620    1.8120 N   0  0  0  0  0  0  0  0  0  0  0  0
    8.1500   27.1510    3.5240 S   0  0  0  0  0  0  0  0  0  0  0  0
    7.2870   28.3540    1.1780 C   0  0  0  0  0  0  0  0  0  0  0  0
    8.2650   29.2590    0.4010 C   0  0  0  0  0  0  0  0  0  0  0  0
    8.5030   28.7470   -0.9240 O   0  0  0  0  0  0  0  0  0  0  0  0
    7.9080   28.5000    4.0280 O   0  0  0  0  0  0  0  0  0  0  0  0
    6.9010   26.0740    4.0100 C   0  0  0  0  0  0  0  0  0  0  0  0
    9.4490   26.5640    3.8300 O   0  0  0  0  0  0  0  0  0  0  0  0
    5.5940   26.5510    4.1550 C   0  0  0  0  0  0  0  0  0  0  0  0
    4.5760   25.6900    4.5560 C   0  0  0  0  0  0  0  0  0  0  0  0
    4.8540   24.3400    4.8430 C   0  0  0  0  0  0  0  0  0  0  0  0
    6.1540   23.8530    4.6180 C   0  0  0  0  0  0  0  0  0  0  0  0
    7.1730   24.7160    4.2110 C   0  0  0  0  0  0  0  0  0  0  0  0
    3.8040   23.4900    5.4410 C   0  0  0  0  0  0  0  0  0  0  0  0
    4.1680   22.4610    6.3260 C   0  0  0  0  0  0  0  0  0  0  0  0
    3.1890   21.7220    6.9900 C   0  0  0  0  0  0  0  0  0  0  0  0
    1.8340   21.9970    6.7850 C   0  0  0  0  0  0  0  0  0  0  0  0
    1.4640   23.0040    5.8900 C   0  0  0  0  0  0  0  0  0  0  0  0
    2.4390   23.7380    5.2110 C   0  0  0  0  0  0  0  0  0  0  0  0
    8.3720   21.9440    1.5620 H   0  0  0  0  0  0  0  0  0  0  0  0
    9.6550   23.7960    1.4770 H   0  0  0  0  0  0  0  0  0  0  0  0
    8.9760   26.7920   -0.0280 H   0  0  0  0  0  0  0  0  0  0  0  0
    9.7510   26.1200    1.4720 H   0  0  0  0  0  0  0  0  0  0  0  0
    6.4810   28.0100    0.4770 H   0  0  0  0  0  0  0  0  0  0  0  0
    6.7900   28.9770    1.9780 H   0  0  0  0  0  0  0  0  0  0  0  0
    7.8620   30.2970    0.3290 H   0  0  0  0  0  0  0  0  0  0  0  0
    9.2820   29.2590    0.8540 H   0  0  0  0  0  0  0  0  0  0  0  0
    7.7280   28.9470   -1.5030 H   0  0  0  0  0  0  0  0  0  0  0  0
    5.3600   27.6010    3.9600 H   0  0  0  0  0  0  0  0  0  0  0  0
    3.5580   26.0710    4.6430 H   0  0  0  0  0  0  0  0  0  0  0  0
    6.3860   22.7930    4.7450 H   0  0  0  0  0  0  0  0  0  0  0  0
    8.1820   24.3140    4.0450 H   0  0  0  0  0  0  0  0  0  0  0  0
    5.2200   22.2480    6.5250 H   0  0  0  0  0  0  0  0  0  0  0  0
    3.4910   20.9320    7.6710 H   0  0  0  0  0  0  0  0  0  0  0  0
    1.0700   21.4300    7.3180 H   0  0  0  0  0  0  0  0  0  0  0  0
    0.4070   23.2130    5.7080 H   0  0  0  0  0  0  0  0  0  0  0  0
    2.1200   24.4990    4.4950 H   0  0  0  0  0  0  0  0  0  0  0  0
  1  2  1  0  0  0  0
  1 25  1  0  0  0  0
  2  3  1  0  0  0  0
  2 26  1  0  0  0  0
  3  5  2  0  0  0  0
  3  4  1  0  0  0  0
  4  6  1  0  0  0  0
  4 27  1  0  0  0  0
  4 28  1  0  0  0  0
  6  8  1  0  0  0  0
  6  7  1  0  0  0  0
  7 13  2  0  0  0  0
  7 12  1  0  0  0  0
  7 11  2  0  0  0  0
  8  9  1  0  0  0  0
  8 29  1  0  0  0  0
  8 30  1  0  0  0  0
  9 10  1  0  0  0  0
  9 31  1  0  0  0  0
  9 32  1  0  0  0  0
 10 33  1  0  0  0  0
 12 18  2  0  0  0  0
 12 14  1  0  0  0  0
 14 15  2  0  0  0  0
 14 34  1  0  0  0  0
 15 16  1  0  0  0  0
 15 35  1  0  0  0  0
 16 17  2  0  0  0  0
 16 19  1  0  0  0  0
 17 18  1  0  0  0  0
 17 36  1  0  0  0  0
 18 37  1  0  0  0  0
 19 24  2  0  0  0  0
 19 20  1  0  0  0  0
 20 21  2  0  0  0  0
 20 38  1  0  0  0  0
 21 22  1  0  0  0  0
 21 39  1  0  0  0  0
 22 23  2  0  0  0  0
 22 40  1  0  0  0  0
 23 24  1  0  0  0  0
 23 41  1  0  0  0  0
 24 42  1  0  0  0  0
M  END
>  <lm5_entropy_jk>
22.689748683775868

>  <number_of_rotatable_bonds>
8

>  <deltaG_kcalmol>
-10.25

>  <charge>
0

$$$$
