JAK1_5.pdb
 OpenBabel11252210453D

 38 41  0  0  1  0  0  0  0  0999 V2000
  -11.4210   29.4400    0.9350 C   0  0  0  0  0  0  0  0  0  0  0  0
  -12.4950   28.4500    0.7110 C   0  0  0  0  0  0  0  0  0  0  0  0
  -12.4480   27.1780    1.1370 N   0  0  0  0  0  0  0  0  0  0  0  0
  -13.6440   26.5790    0.7260 C   0  0  0  0  0  0  0  0  0  0  0  0
  -14.0400   25.2190    0.9030 C   0  0  0  0  0  0  0  0  0  0  0  0
  -15.2020   24.7640    0.4380 N   0  0  0  0  0  0  0  0  0  0  0  0
  -16.0090   25.6910   -0.2050 C   0  0  0  0  0  0  0  0  0  0  0  0
  -15.7270   27.0910   -0.4390 C   0  0  0  0  0  0  0  0  0  0  0  0
  -14.4710   27.5380    0.0360 C   0  0  0  0  0  0  0  0  0  0  0  0
  -13.7180   28.7240   -0.0020 N   0  0  0  0  0  0  0  0  0  0  0  0
  -14.0360   30.0560   -0.5920 C   0  0  2  0  0  0  0  0  0  0  0  0
  -15.1910   30.7340    0.1700 C   0  0  0  0  0  0  0  0  0  0  0  0
  -15.3760   32.1650   -0.3620 C   0  0  0  0  0  0  0  0  0  0  0  0
  -15.6700   32.1510   -1.8690 C   0  0  0  0  0  0  0  0  0  0  0  0
  -14.5920   31.4040   -2.6670 C   0  0  2  0  0  0  0  0  0  0  0  0
  -14.3110   29.9900   -2.1070 C   0  0  0  0  0  0  0  0  0  0  0  0
  -13.3920   32.2160   -2.5910 O   0  0  0  0  0  0  0  0  0  0  0  0
  -16.8600   27.6180   -1.1330 C   0  0  0  0  0  0  0  0  0  0  0  0
  -17.7710   26.5820   -1.3170 C   0  0  0  0  0  0  0  0  0  0  0  0
  -17.2560   25.3960   -0.7660 N   0  0  0  0  0  0  0  0  0  0  0  0
  -13.3790   24.5160    1.4330 H   0  0  0  0  0  0  0  0  0  0  0  0
  -13.1130   30.6910   -0.4560 H   0  0  0  0  0  0  0  0  0  0  0  0
  -16.1330   30.1550    0.0220 H   0  0  0  0  0  0  0  0  0  0  0  0
  -14.9580   30.7610    1.2600 H   0  0  0  0  0  0  0  0  0  0  0  0
  -16.2250   32.6590    0.1700 H   0  0  0  0  0  0  0  0  0  0  0  0
  -14.4540   32.7630   -0.1740 H   0  0  0  0  0  0  0  0  0  0  0  0
  -15.7700   33.2000   -2.2410 H   0  0  0  0  0  0  0  0  0  0  0  0
  -16.6540   31.6390   -2.0490 H   0  0  0  0  0  0  0  0  0  0  0  0
  -14.8860   31.3330   -3.7410 H   0  0  0  0  0  0  0  0  0  0  0  0
  -13.4400   29.5420   -2.6320 H   0  0  0  0  0  0  0  0  0  0  0  0
  -15.2090   29.3550   -2.3140 H   0  0  0  0  0  0  0  0  0  0  0  0
  -17.0150   28.6240   -1.4760 H   0  0  0  0  0  0  0  0  0  0  0  0
  -18.7240   26.6070   -1.8210 H   0  0  0  0  0  0  0  0  0  0  0  0
  -17.7570   24.5050   -0.6960 H   0  0  0  0  0  0  0  0  0  0  0  0
  -10.7610   29.1060    1.7850 H   0  0  0  0  0  0  0  0  0  0  0  0
  -11.8200   30.4450    1.2140 H   0  0  0  0  0  0  0  0  0  0  0  0
  -10.7760   29.5420    0.0300 H   0  0  0  0  0  0  0  0  0  0  0  0
  -12.7770   31.9260   -3.3290 H   0  0  0  0  0  0  0  0  0  0  0  0
  1  2  1  0  0  0  0
  2 10  1  0  0  0  0
  2  3  2  0  0  0  0
  4  5  2  0  0  0  0
  4  9  1  0  0  0  0
  4  3  1  0  0  0  0
  5  6  1  0  0  0  0
  7  8  1  0  0  0  0
  7 20  1  0  0  0  0
  7  6  2  0  0  0  0
  8  9  2  0  0  0  0
  9 10  1  0  0  0  0
 11 12  1  0  0  0  0
 11 16  1  0  0  0  0
 11 10  1  0  0  0  0
 11 22  1  1  0  0  0
 12 13  1  0  0  0  0
 13 14  1  0  0  0  0
 14 15  1  0  0  0  0
 15 16  1  0  0  0  0
 15 17  1  0  0  0  0
 15 29  1  6  0  0  0
 18 19  2  0  0  0  0
 18  8  1  0  0  0  0
 19 20  1  0  0  0  0
 21  5  1  0  0  0  0
 23 12  1  0  0  0  0
 24 12  1  0  0  0  0
 25 13  1  0  0  0  0
 26 13  1  0  0  0  0
 27 14  1  0  0  0  0
 28 14  1  0  0  0  0
 30 16  1  0  0  0  0
 31 16  1  0  0  0  0
 32 18  1  0  0  0  0
 33 19  1  0  0  0  0
 34 20  1  0  0  0  0
 35  1  1  0  0  0  0
 36  1  1  0  0  0  0
 37  1  1  0  0  0  0
 38 17  1  0  0  0  0
M  END
>  <charge>
0

>  <pKi>
8.74

>  <number_of_rotatable_bonds>
1

>  <lm5_entropy_jk>
22.786904138289753

$$$$
