4E4N
 OpenBabel11252210453D

 48 51  0  0  1  0  0  0  0  0999 V2000
  -18.5360   36.3750   -1.1320 C   0  0  0  0  0  0  0  0  0  0  0  0
  -17.7450   36.0040   -2.3360 C   0  0  0  0  0  0  0  0  0  0  0  0
  -18.6230   36.1110   -3.5230 C   0  0  0  0  0  0  0  0  0  0  0  0
  -16.5790   36.8890   -2.5690 C   0  0  0  0  0  0  0  0  0  0  0  0
  -17.3610   34.6530   -2.2620 O   0  0  0  0  0  0  0  0  0  0  0  0
  -16.4550   34.1670   -1.3860 C   0  0  0  0  0  0  0  0  0  0  0  0
  -15.8470   34.7810   -0.5310 O   0  0  0  0  0  0  0  0  0  0  0  0
  -16.1090   32.9240   -1.8020 N   0  0  0  0  0  0  0  0  0  0  0  0
  -14.7780   32.3880   -1.6080 C   0  0  2  0  0  0  0  0  0  0  0  0
  -14.3830   31.5580   -2.8260 C   0  0  0  0  0  0  0  0  0  0  0  0
  -14.3760   30.0660   -2.3900 C   0  0  0  0  0  0  0  0  0  0  0  0
  -14.9500   30.0090   -0.9660 C   0  0  2  0  0  0  0  0  0  0  0  0
  -14.7200   31.4280   -0.4190 C   0  0  0  0  0  0  0  0  0  0  0  0
  -14.3620   28.9190   -0.1630 N   0  0  0  0  0  0  0  0  0  0  0  0
  -13.0980   28.8730    0.4710 C   0  0  0  0  0  0  0  0  0  0  0  0
  -12.7720   27.6460    0.9320 N   0  0  0  0  0  0  0  0  0  0  0  0
  -13.8490   26.9030    0.6000 C   0  0  0  0  0  0  0  0  0  0  0  0
  -14.8020   27.6250   -0.0410 C   0  0  0  0  0  0  0  0  0  0  0  0
  -15.9680   26.9800   -0.4850 C   0  0  0  0  0  0  0  0  0  0  0  0
  -17.1220   27.4190   -1.2380 C   0  0  0  0  0  0  0  0  0  0  0  0
  -17.9270   26.3020   -1.4110 C   0  0  0  0  0  0  0  0  0  0  0  0
  -17.2990   25.2180   -0.7680 N   0  0  0  0  0  0  0  0  0  0  0  0
  -16.1050   25.6310   -0.2290 C   0  0  0  0  0  0  0  0  0  0  0  0
  -15.1720   24.8900    0.4180 N   0  0  0  0  0  0  0  0  0  0  0  0
  -14.0410   25.5270    0.8310 C   0  0  0  0  0  0  0  0  0  0  0  0
  -16.7000   32.5770   -2.5400 H   0  0  0  0  0  0  0  0  0  0  0  0
  -14.0790   33.2310   -1.4650 H   0  0  0  0  0  0  0  0  0  0  0  0
  -15.0720   31.7330   -3.6640 H   0  0  0  0  0  0  0  0  0  0  0  0
  -13.3970   31.8880   -3.1730 H   0  0  0  0  0  0  0  0  0  0  0  0
  -13.3550   29.6610   -2.3920 H   0  0  0  0  0  0  0  0  0  0  0  0
  -14.9740   29.4250   -3.0570 H   0  0  0  0  0  0  0  0  0  0  0  0
  -16.0380   29.8630   -1.0190 H   0  0  0  0  0  0  0  0  0  0  0  0
  -13.7350   31.5090    0.0460 H   0  0  0  0  0  0  0  0  0  0  0  0
  -15.4640   31.6910    0.3450 H   0  0  0  0  0  0  0  0  0  0  0  0
  -12.4620   29.7480    0.5450 H   0  0  0  0  0  0  0  0  0  0  0  0
  -17.3460   28.3910   -1.6610 H   0  0  0  0  0  0  0  0  0  0  0  0
  -18.8690   26.1950   -1.9400 H   0  0  0  0  0  0  0  0  0  0  0  0
  -13.2830   24.9310    1.3430 H   0  0  0  0  0  0  0  0  0  0  0  0
  -17.6810   24.2790   -0.6770 H   0  0  0  0  0  0  0  0  0  0  0  0
  -19.1710   35.1800   -3.6340 H   0  0  0  0  0  0  0  0  0  0  0  0
  -18.0210   36.1900   -4.4350 H   0  0  0  0  0  0  0  0  0  0  0  0
  -19.2910   36.9780   -3.4850 H   0  0  0  0  0  0  0  0  0  0  0  0
  -17.9230   36.2440   -0.2380 H   0  0  0  0  0  0  0  0  0  0  0  0
  -19.4140   35.7370   -1.0340 H   0  0  0  0  0  0  0  0  0  0  0  0
  -18.8570   37.4210   -1.1830 H   0  0  0  0  0  0  0  0  0  0  0  0
  -15.9690   36.9660   -1.6720 H   0  0  0  0  0  0  0  0  0  0  0  0
  -15.9430   36.4770   -3.3590 H   0  0  0  0  0  0  0  0  0  0  0  0
  -16.8900   37.8960   -2.8610 H   0  0  0  0  0  0  0  0  0  0  0  0
  1  2  1  0  0  0  0
  2  3  1  0  0  0  0
  2  4  1  0  0  0  0
  2  5  1  0  0  0  0
  6  8  1  0  0  0  0
  6  5  1  0  0  0  0
  6  7  2  0  0  0  0
  9  8  1  0  0  0  0
  9 27  1  6  0  0  0
 10 11  1  0  0  0  0
 10  9  1  0  0  0  0
 11 12  1  0  0  0  0
 12 13  1  0  0  0  0
 12 14  1  0  0  0  0
 12 32  1  1  0  0  0
 13  9  1  0  0  0  0
 15 14  1  0  0  0  0
 15 16  2  0  0  0  0
 17 18  2  0  0  0  0
 17 25  1  0  0  0  0
 17 16  1  0  0  0  0
 18 19  1  0  0  0  0
 18 14  1  0  0  0  0
 19 20  1  0  0  0  0
 19 23  2  0  0  0  0
 20 21  2  0  0  0  0
 21 22  1  0  0  0  0
 23 22  1  0  0  0  0
 23 24  1  0  0  0  0
 25 24  2  0  0  0  0
 26  8  1  0  0  0  0
 28 10  1  0  0  0  0
 29 10  1  0  0  0  0
 30 11  1  0  0  0  0
 31 11  1  0  0  0  0
 33 13  1  0  0  0  0
 34 13  1  0  0  0  0
 35 15  1  0  0  0  0
 36 20  1  0  0  0  0
 37 21  1  0  0  0  0
 38 25  1  0  0  0  0
 39 22  1  0  0  0  0
 40  3  1  0  0  0  0
 41  3  1  0  0  0  0
 42  3  1  0  0  0  0
 43  1  1  0  0  0  0
 44  1  1  0  0  0  0
 45  1  1  0  0  0  0
 46  4  1  0  0  0  0
 47  4  1  0  0  0  0
 48  4  1  0  0  0  0
M  END
>  <charge>
0

>  <pKi>
9.05

>  <number_of_rotatable_bonds>
5

>  <lm5_entropy_jk>
42.87497332308547

$$$$
