4E4N
 OpenBabel11252210453D

 48 51  0  0  1  0  0  0  0  0999 V2000
  -16.8950   35.7650   -1.5670 C   0  0  0  0  0  0  0  0  0  0  0  0
  -15.9670   35.9140   -2.7180 C   0  0  0  0  0  0  0  0  0  0  0  0
  -16.7600   36.2680   -3.9180 C   0  0  0  0  0  0  0  0  0  0  0  0
  -14.9520   36.9670   -2.4990 C   0  0  0  0  0  0  0  0  0  0  0  0
  -15.3730   34.6820   -3.0040 O   0  0  0  0  0  0  0  0  0  0  0  0
  -14.6370   33.9670   -2.1300 C   0  0  0  0  0  0  0  0  0  0  0  0
  -14.1200   34.3370   -1.0860 O   0  0  0  0  0  0  0  0  0  0  0  0
  -14.5940   32.6970   -2.5820 N   0  0  0  0  0  0  0  0  0  0  0  0
  -14.0260   31.5740   -1.8730 C   0  0  2  0  0  0  0  0  0  0  0  0
  -14.1250   30.3390   -2.7660 C   0  0  0  0  0  0  0  0  0  0  0  0
  -15.4120   29.6190   -2.3120 C   0  0  0  0  0  0  0  0  0  0  0  0
  -15.4500   29.8120   -0.7950 C   0  0  2  0  0  0  0  0  0  0  0  0
  -14.8870   31.2400   -0.6320 C   0  0  0  0  0  0  0  0  0  0  0  0
  -14.6750   28.7670   -0.1070 N   0  0  0  0  0  0  0  0  0  0  0  0
  -13.3870   28.7910    0.4760 C   0  0  0  0  0  0  0  0  0  0  0  0
  -12.9690   27.5780    0.9030 N   0  0  0  0  0  0  0  0  0  0  0  0
  -14.0140   26.7790    0.5950 C   0  0  0  0  0  0  0  0  0  0  0  0
  -15.0310   27.4570    0.0130 C   0  0  0  0  0  0  0  0  0  0  0  0
  -16.1690   26.7720   -0.4230 C   0  0  0  0  0  0  0  0  0  0  0  0
  -17.3620   27.1830   -1.1310 C   0  0  0  0  0  0  0  0  0  0  0  0
  -18.0870   26.0280   -1.3740 C   0  0  0  0  0  0  0  0  0  0  0  0
  -17.3740   24.9540   -0.8050 N   0  0  0  0  0  0  0  0  0  0  0  0
  -16.2100   25.4110   -0.2410 C   0  0  0  0  0  0  0  0  0  0  0  0
  -15.2210   24.7030    0.3560 N   0  0  0  0  0  0  0  0  0  0  0  0
  -14.1200   25.3870    0.7770 C   0  0  0  0  0  0  0  0  0  0  0  0
  -15.0540   32.5770   -3.4730 H   0  0  0  0  0  0  0  0  0  0  0  0
  -12.9780   31.8020   -1.6120 H   0  0  0  0  0  0  0  0  0  0  0  0
  -14.1440   30.5900   -3.8320 H   0  0  0  0  0  0  0  0  0  0  0  0
  -13.2590   29.6860   -2.5910 H   0  0  0  0  0  0  0  0  0  0  0  0
  -15.4410   28.5540   -2.5900 H   0  0  0  0  0  0  0  0  0  0  0  0
  -16.3050   30.0860   -2.7570 H   0  0  0  0  0  0  0  0  0  0  0  0
  -16.4830   29.7500   -0.4160 H   0  0  0  0  0  0  0  0  0  0  0  0
  -14.3430   31.3540    0.3110 H   0  0  0  0  0  0  0  0  0  0  0  0
  -15.7380   31.9330   -0.5780 H   0  0  0  0  0  0  0  0  0  0  0  0
  -12.8100   29.7050    0.5550 H   0  0  0  0  0  0  0  0  0  0  0  0
  -17.6590   28.1680   -1.4720 H   0  0  0  0  0  0  0  0  0  0  0  0
  -19.0300   25.8910   -1.8970 H   0  0  0  0  0  0  0  0  0  0  0  0
  -13.3140   24.8150    1.2410 H   0  0  0  0  0  0  0  0  0  0  0  0
  -17.6820   23.9860   -0.7630 H   0  0  0  0  0  0  0  0  0  0  0  0
  -16.1260   36.3060   -4.8100 H   0  0  0  0  0  0  0  0  0  0  0  0
  -17.2540   37.2390   -3.8090 H   0  0  0  0  0  0  0  0  0  0  0  0
  -17.5290   35.5110   -4.1050 H   0  0  0  0  0  0  0  0  0  0  0  0
  -16.3500   35.6010   -0.6360 H   0  0  0  0  0  0  0  0  0  0  0  0
  -17.5560   34.9050   -1.7340 H   0  0  0  0  0  0  0  0  0  0  0  0
  -17.5290   36.6530   -1.4600 H   0  0  0  0  0  0  0  0  0  0  0  0
  -14.3040   36.7050   -1.6680 H   0  0  0  0  0  0  0  0  0  0  0  0
  -14.3370   37.1040   -3.3930 H   0  0  0  0  0  0  0  0  0  0  0  0
  -15.4310   37.9250   -2.2750 H   0  0  0  0  0  0  0  0  0  0  0  0
  1  2  1  0  0  0  0
  2  3  1  0  0  0  0
  2  4  1  0  0  0  0
  2  5  1  0  0  0  0
  6  8  1  0  0  0  0
  6  5  1  0  0  0  0
  6  7  2  0  0  0  0
  9  8  1  0  0  0  0
  9 27  1  6  0  0  0
 10 11  1  0  0  0  0
 10  9  1  0  0  0  0
 11 12  1  0  0  0  0
 12 13  1  0  0  0  0
 12 14  1  0  0  0  0
 12 32  1  1  0  0  0
 13  9  1  0  0  0  0
 15 14  1  0  0  0  0
 15 16  2  0  0  0  0
 17 18  2  0  0  0  0
 17 25  1  0  0  0  0
 17 16  1  0  0  0  0
 18 19  1  0  0  0  0
 18 14  1  0  0  0  0
 19 20  1  0  0  0  0
 19 23  2  0  0  0  0
 20 21  2  0  0  0  0
 21 22  1  0  0  0  0
 23 22  1  0  0  0  0
 23 24  1  0  0  0  0
 25 24  2  0  0  0  0
 26  8  1  0  0  0  0
 28 10  1  0  0  0  0
 29 10  1  0  0  0  0
 30 11  1  0  0  0  0
 31 11  1  0  0  0  0
 33 13  1  0  0  0  0
 34 13  1  0  0  0  0
 35 15  1  0  0  0  0
 36 20  1  0  0  0  0
 37 21  1  0  0  0  0
 38 25  1  0  0  0  0
 39 22  1  0  0  0  0
 40  3  1  0  0  0  0
 41  3  1  0  0  0  0
 42  3  1  0  0  0  0
 43  1  1  0  0  0  0
 44  1  1  0  0  0  0
 45  1  1  0  0  0  0
 46  4  1  0  0  0  0
 47  4  1  0  0  0  0
 48  4  1  0  0  0  0
M  END
>  <charge>
0

>  <pKi>
9.05

>  <number_of_rotatable_bonds>
5

>  <lm5_entropy_jk>
42.87497332308547

$$$$
