3r8v.pdb
 OpenBabel11252210453D

 33 34  0  0  1  0  0  0  0  0999 V2000
   65.7130  154.5760  -50.3290 N   0  0  0  0  0  0  0  0  0  0  0  0
   67.3710  153.4720  -51.6580 N   0  0  0  0  0  0  0  0  0  0  0  0
   64.2820  155.4150  -48.6080 N   0  0  0  0  0  0  0  0  0  0  0  0
   67.7930  150.8180  -44.1770 N   0  3  0  0  0  0  0  0  0  0  0  0
   66.7910  153.6520  -50.4360 C   0  0  0  0  0  0  0  0  0  0  0  0
   67.1250  152.9290  -49.2660 C   0  0  0  0  0  0  0  0  0  0  0  0
   68.2540  152.0820  -49.0500 C   0  0  0  0  0  0  0  0  0  0  0  0
   68.1860  151.0810  -47.9190 C   0  0  0  0  0  0  0  0  0  0  0  0
   67.9860  151.4380  -46.5840 C   0  0  0  0  0  0  0  0  0  0  0  0
   67.9500  150.4350  -45.6000 C   0  0  0  0  0  0  0  0  0  0  0  0
   68.0770  149.0810  -45.9310 C   0  0  0  0  0  0  0  0  0  0  0  0
   68.2840  148.7430  -47.2700 C   0  0  0  0  0  0  0  0  0  0  0  0
   68.3580  149.7290  -48.2550 C   0  0  0  0  0  0  0  0  0  0  0  0
   65.1980  154.5090  -49.0800 C   0  0  0  0  0  0  0  0  0  0  0  0
   63.6890  155.2910  -47.2530 C   0  0  0  0  0  0  0  0  0  0  0  0
   62.7810  154.1020  -47.0820 C   0  0  0  0  0  0  0  0  0  0  0  0
   62.5670  153.5610  -45.8860 C   0  0  0  0  0  0  0  0  0  0  0  0
   69.2480  152.0910  -49.7670 O   0  0  0  0  0  0  0  0  0  0  0  0
   68.4430  151.7680  -43.7700 O   0  5  0  0  0  0  0  0  0  0  0  0
   67.0350  150.1610  -43.4780 O   0  0  0  0  0  0  0  0  0  0  0  0
   65.9280  153.1830  -48.0380 S   0  0  0  0  0  0  0  0  0  0  0  0
   67.1180  154.0890  -52.4590 H   0  0  0  0  0  0  0  0  0  0  0  0
   68.2300  152.9210  -51.7310 H   0  0  0  0  0  0  0  0  0  0  0  0
   67.8710  152.4790  -46.2860 H   0  0  0  0  0  0  0  0  0  0  0  0
   68.0270  148.2940  -45.1710 H   0  0  0  0  0  0  0  0  0  0  0  0
   68.3910  147.6950  -47.5400 H   0  0  0  0  0  0  0  0  0  0  0  0
   68.5640  149.4370  -49.2870 H   0  0  0  0  0  0  0  0  0  0  0  0
   63.6000  155.7980  -49.3010 H   0  0  0  0  0  0  0  0  0  0  0  0
   63.0750  156.2280  -47.0930 H   0  0  0  0  0  0  0  0  0  0  0  0
   64.5140  155.2760  -46.4980 H   0  0  0  0  0  0  0  0  0  0  0  0
   61.9020  152.7180  -45.7330 H   0  0  0  0  0  0  0  0  0  0  0  0
   63.0460  153.9310  -44.9770 H   0  0  0  0  0  0  0  0  0  0  0  0
   62.3030  153.7480  -47.9970 H   0  0  0  0  0  0  0  0  0  0  0  0
  1  5  1  0  0  0  0
  1 14  2  0  0  0  0
  2  5  1  0  0  0  0
  2 22  1  0  0  0  0
  2 23  1  0  0  0  0
  3 14  1  0  0  0  0
  3 15  1  0  0  0  0
  3 28  1  0  0  0  0
  4 10  1  0  0  0  0
  4 19  1  0  0  0  0
  4 20  2  0  0  0  0
  5  6  2  0  0  0  0
  6 21  1  0  0  0  0
  7  6  1  0  0  0  0
  7  8  1  0  0  0  0
  7 18  2  0  0  0  0
  8  9  2  0  0  0  0
  8 13  1  0  0  0  0
  9 10  1  0  0  0  0
  9 24  1  0  0  0  0
 10 11  2  0  0  0  0
 11 12  1  0  0  0  0
 11 25  1  0  0  0  0
 12 13  2  0  0  0  0
 12 26  1  0  0  0  0
 13 27  1  0  0  0  0
 14 21  1  0  0  0  0
 15 16  1  0  0  0  0
 15 29  1  0  0  0  0
 15 30  1  0  0  0  0
 16 17  2  0  0  0  0
 16 33  1  0  0  0  0
 17 31  1  0  0  0  0
 17 32  1  0  0  0  0
M  CHG  2   4   1  19  -1
M  END
>  <lm5_entropy_jk>
33.50945403317048

>  <number_of_rotatable_bonds>
6

>  <IC50_NM>
2900

>  <charge>
0

$$$$
