1F0Q
 OpenBabel11252210453D

 30 32  0  0  1  0  0  0  0  0999 V2000
   22.1850    6.9050   21.1810 C   0  0  0  0  0  0  0  0  0  0  0  0
   21.5060    7.9810   21.6080 O   0  0  0  0  0  0  0  0  0  0  0  0
   22.3190    5.8500   22.1060 C   0  0  0  0  0  0  0  0  0  0  0  0
   22.9910    4.7060   21.6900 C   0  0  0  0  0  0  0  0  0  0  0  0
   23.0400    3.6850   22.5940 O   0  0  0  0  0  0  0  0  0  0  0  0
   23.6000    4.6080   20.4100 C   0  0  0  0  0  0  0  0  0  0  0  0
   23.4770    5.6690   19.5330 C   0  0  0  0  0  0  0  0  0  0  0  0
   24.1660    5.5830   18.1920 C   0  0  0  0  0  0  0  0  0  0  0  0
   24.9310    4.6800   17.9270 O   0  0  0  0  0  0  0  0  0  0  0  0
   23.8700    6.6730   17.1940 C   0  0  0  0  0  0  0  0  0  0  0  0
   24.3650    6.5350   15.9040 C   0  0  0  0  0  0  0  0  0  0  0  0
   24.1400    7.5450   14.9380 C   0  0  0  0  0  0  0  0  0  0  0  0
   24.6520    7.4010   13.5470 C   0  0  0  0  0  0  0  0  0  0  0  0
   23.4440    8.6950   15.3030 C   0  0  0  0  0  0  0  0  0  0  0  0
   22.9540    8.8270   16.6150 C   0  0  0  0  0  0  0  0  0  0  0  0
   22.3010    9.9420   17.0350 O   0  0  0  0  0  0  0  0  0  0  0  0
   23.1150    7.8020   17.5760 C   0  0  0  0  0  0  0  0  0  0  0  0
   22.5000    7.9050   18.9110 C   0  0  0  0  0  0  0  0  0  0  0  0
   21.7790    8.8570   19.2190 O   0  0  0  0  0  0  0  0  0  0  0  0
   22.7400    6.8240   19.8710 C   0  0  0  0  0  0  0  0  0  0  0  0
   22.2740   10.6460   16.3190 H   0  0  0  0  0  0  0  0  0  0  0  0
   21.3940    8.6990   20.8420 H   0  0  0  0  0  0  0  0  0  0  0  0
   21.8810    5.9180   23.1050 H   0  0  0  0  0  0  0  0  0  0  0  0
   23.4560    2.8530   22.2050 H   0  0  0  0  0  0  0  0  0  0  0  0
   24.1490    3.7040   20.1340 H   0  0  0  0  0  0  0  0  0  0  0  0
   24.9510    5.6510   15.6360 H   0  0  0  0  0  0  0  0  0  0  0  0
   25.4960    8.1270   13.3990 H   0  0  0  0  0  0  0  0  0  0  0  0
   23.3250    9.4980   14.5720 H   0  0  0  0  0  0  0  0  0  0  0  0
   23.8650    7.6760   12.8020 H   0  0  0  0  0  0  0  0  0  0  0  0
   25.0520    6.3880   13.3270 H   0  0  0  0  0  0  0  0  0  0  0  0
  1  2  1  0  0  0  0
  1  3  2  0  0  0  0
  1 20  1  0  0  0  0
  2 22  1  0  0  0  0
  3  4  1  0  0  0  0
  3 23  1  0  0  0  0
  4  5  1  0  0  0  0
  4  6  2  0  0  0  0
  5 24  1  0  0  0  0
  6  7  1  0  0  0  0
  6 25  1  0  0  0  0
  7  8  1  0  0  0  0
  7 20  2  0  0  0  0
  8  9  2  0  0  0  0
  8 10  1  0  0  0  0
 10 11  1  0  0  0  0
 10 17  2  0  0  0  0
 11 12  2  0  0  0  0
 11 26  1  0  0  0  0
 12 13  1  0  0  0  0
 12 14  1  0  0  0  0
 13 27  1  0  0  0  0
 13 29  1  0  0  0  0
 13 30  1  0  0  0  0
 14 15  2  0  0  0  0
 14 28  1  0  0  0  0
 15 16  1  0  0  0  0
 15 17  1  0  0  0  0
 16 21  1  0  0  0  0
 17 18  1  0  0  0  0
 18 19  2  0  0  0  0
 18 20  1  0  0  0  0
M  END
>  <Ki_NM>
1900

>  <charge>
0

>  <number_of_rotatable_bonds>
0

>  <lm5_entropy_jk>
16.12636398139741

$$$$
