3RNI
 OpenBabel11252210453D

 39 41  0  0  0  0  0  0  0  0999 V2000
   65.6920  154.3620  -50.3940 N   0  0  0  0  0  0  0  0  0  0  0  0
   64.2920  154.7080  -48.5620 N   0  0  0  0  0  0  0  0  0  0  0  0
   67.0920  153.5160  -52.0330 N   0  0  0  0  0  0  0  0  0  0  0  0
   60.1720  156.4860  -44.7300 N   0  0  0  0  0  0  0  0  0  0  0  0
   67.3070  152.7970  -49.7790 C   0  0  0  0  0  0  0  0  0  0  0  0
   66.7670  153.5840  -50.7450 C   0  0  0  0  0  0  0  0  0  0  0  0
   65.4110  154.1470  -49.1210 C   0  0  0  0  0  0  0  0  0  0  0  0
   68.3590  151.8000  -50.0410 C   0  0  0  0  0  0  0  0  0  0  0  0
   63.6810  154.6170  -47.3060 C   0  0  0  0  0  0  0  0  0  0  0  0
   68.6580  150.7450  -48.9950 C   0  0  0  0  0  0  0  0  0  0  0  0
   62.9680  155.7190  -46.7820 C   0  0  0  0  0  0  0  0  0  0  0  0
   62.4330  155.6770  -45.4590 C   0  0  0  0  0  0  0  0  0  0  0  0
   62.5860  154.5040  -44.6840 C   0  0  0  0  0  0  0  0  0  0  0  0
   63.2290  153.3920  -45.2430 C   0  0  0  0  0  0  0  0  0  0  0  0
   63.7640  153.4400  -46.5410 C   0  0  0  0  0  0  0  0  0  0  0  0
   67.6410  150.1660  -48.2020 C   0  0  0  0  0  0  0  0  0  0  0  0
   67.9380  149.1560  -47.2720 C   0  0  0  0  0  0  0  0  0  0  0  0
   69.2500  148.6780  -47.1530 C   0  0  0  0  0  0  0  0  0  0  0  0
   70.2590  149.2020  -47.9760 C   0  0  0  0  0  0  0  0  0  0  0  0
   69.9670  150.2320  -48.8880 C   0  0  0  0  0  0  0  0  0  0  0  0
   68.9610  151.7960  -51.1020 O   0  0  0  0  0  0  0  0  0  0  0  0
   61.8920  157.2780  -43.3030 O   0  0  0  0  0  0  0  0  0  0  0  0
   61.4180  158.1590  -45.7030 O   0  0  0  0  0  0  0  0  0  0  0  0
   66.5500  153.1350  -48.2520 S   0  0  0  0  0  0  0  0  0  0  0  0
   61.6200  157.0900  -44.7320 S   0  0  0  0  0  0  0  0  0  0  0  0
   63.8100  155.2990  -49.2370 H   0  0  0  0  0  0  0  0  0  0  0  0
   66.8800  154.2820  -52.6580 H   0  0  0  0  0  0  0  0  0  0  0  0
   67.9210  152.9580  -52.2000 H   0  0  0  0  0  0  0  0  0  0  0  0
   60.5660  155.7410  -45.2950 H   0  0  0  0  0  0  0  0  0  0  0  0
   60.0510  157.2640  -45.3840 H   0  0  0  0  0  0  0  0  0  0  0  0
   62.8800  156.6160  -47.4000 H   0  0  0  0  0  0  0  0  0  0  0  0
   62.2130  154.4330  -43.6550 H   0  0  0  0  0  0  0  0  0  0  0  0
   63.3370  152.4850  -44.6500 H   0  0  0  0  0  0  0  0  0  0  0  0
   64.2470  152.5550  -46.9430 H   0  0  0  0  0  0  0  0  0  0  0  0
   66.6080  150.4790  -48.3170 H   0  0  0  0  0  0  0  0  0  0  0  0
   67.1460  148.7320  -46.6550 H   0  0  0  0  0  0  0  0  0  0  0  0
   69.4740  147.8760  -46.4470 H   0  0  0  0  0  0  0  0  0  0  0  0
   71.2660  148.7960  -47.9210 H   0  0  0  0  0  0  0  0  0  0  0  0
   70.7540  150.6280  -49.5320 H   0  0  0  0  0  0  0  0  0  0  0  0
  1  7  2  0  0  0  0
  2  9  1  0  0  0  0
  2 26  1  0  0  0  0
  3  6  1  0  0  0  0
  3 27  1  0  0  0  0
  3 28  1  0  0  0  0
  4 25  1  0  0  0  0
  4 29  1  0  0  0  0
  4 30  1  0  0  0  0
  5 24  1  0  0  0  0
  6  1  1  0  0  0  0
  6  5  2  0  0  0  0
  7  2  1  0  0  0  0
  7 24  1  0  0  0  0
  8  5  1  0  0  0  0
  8 10  1  0  0  0  0
  9 11  2  0  0  0  0
  9 15  1  0  0  0  0
 10 20  2  0  0  0  0
 10 16  1  0  0  0  0
 11 12  1  0  0  0  0
 11 31  1  0  0  0  0
 12 25  1  0  0  0  0
 12 13  2  0  0  0  0
 13 32  1  0  0  0  0
 14 13  1  0  0  0  0
 14 33  1  0  0  0  0
 15 14  2  0  0  0  0
 15 34  1  0  0  0  0
 16 17  2  0  0  0  0
 16 35  1  0  0  0  0
 17 18  1  0  0  0  0
 17 36  1  0  0  0  0
 18 37  1  0  0  0  0
 19 18  2  0  0  0  0
 19 38  1  0  0  0  0
 20 19  1  0  0  0  0
 20 39  1  0  0  0  0
 21  8  2  0  0  0  0
 25 22  2  0  0  0  0
 25 23  2  0  0  0  0
M  END
>  <lm5_entropy_jk>
22.397995528352578

>  <number_of_rotatable_bonds>
5

>  <IC50_NM>
6700

>  <charge>
0

$$$$
