3LJJ
 OpenBabel11252210453D

 58 60  0  0  1  0  0  0  0  0999 V2000
    2.1810   20.4320   17.9240 N   0  0  0  0  0  0  0  0  0  0  0  0
    0.8070   21.2130   14.4580 N   0  3  0  0  0  0  0  0  0  0  0  0
    0.8250   17.4330   19.5780 N   0  0  0  0  0  0  0  0  0  0  0  0
   -1.5890   12.4040   14.9160 N   0  3  0  0  0  0  0  0  0  0  0  0
   -2.6100   14.3040   13.9480 N   0  0  0  0  0  0  0  0  0  0  0  0
    2.2700   19.3280   18.9030 C   0  0  1  0  0  0  0  0  0  0  0  0
    3.0000   19.8950   20.1560 C   0  0  0  0  0  0  0  0  0  0  0  0
    3.3010   21.3880   19.8520 C   0  0  0  0  0  0  0  0  0  0  0  0
    2.5870   21.7190   18.5240 C   0  0  0  0  0  0  0  0  0  0  0  0
    0.8640   18.7680   19.2350 C   0  0  0  0  0  0  0  0  0  0  0  0
    1.5940   20.2500   16.6770 C   0  0  0  0  0  0  0  0  0  0  0  0
    1.2210   21.4980   15.9330 C   0  0  0  0  0  0  0  0  0  0  0  0
    2.0160   21.3410   13.5450 C   0  0  0  0  0  0  0  0  0  0  0  0
    2.5970   22.7650   13.4470 C   0  0  0  0  0  0  0  0  0  0  0  0
    3.1950   22.9240   12.0250 C   0  0  0  0  0  0  0  0  0  0  0  0
    2.8540   21.6280   11.2700 C   0  0  0  0  0  0  0  0  0  0  0  0
    1.7140   20.9920   12.0840 C   0  0  0  0  0  0  0  0  0  0  0  0
   -0.4550   16.6980   19.7710 C   0  0  0  0  0  0  0  0  0  0  0  0
   -0.8610   15.9340   18.5310 C   0  0  0  0  0  0  0  0  0  0  0  0
   -1.1210   16.6110   17.3320 C   0  0  0  0  0  0  0  0  0  0  0  0
   -1.4980   15.9060   16.1770 C   0  0  0  0  0  0  0  0  0  0  0  0
   -1.5970   14.4960   16.2080 C   0  0  0  0  0  0  0  0  0  0  0  0
   -1.3430   13.8290   17.4280 C   0  0  0  0  0  0  0  0  0  0  0  0
   -0.9830   14.5440   18.5760 C   0  0  0  0  0  0  0  0  0  0  0  0
   -1.9700   13.7110   15.0010 C   0  0  0  0  0  0  0  0  0  0  0  0
   -0.1510   19.4480   19.2190 O   0  0  0  0  0  0  0  0  0  0  0  0
    1.3410   19.1510   16.2180 O   0  0  0  0  0  0  0  0  0  0  0  0
    2.8350   18.5030   18.4510 H   0  0  0  0  0  0  0  0  0  0  0  0
    3.9210   19.3320   20.3740 H   0  0  0  0  0  0  0  0  0  0  0  0
    2.3580   19.8080   21.0470 H   0  0  0  0  0  0  0  0  0  0  0  0
    2.9580   22.0550   20.6610 H   0  0  0  0  0  0  0  0  0  0  0  0
    4.3820   21.5680   19.7530 H   0  0  0  0  0  0  0  0  0  0  0  0
    1.6950   22.3390   18.7150 H   0  0  0  0  0  0  0  0  0  0  0  0
    3.2560   22.2820   17.8520 H   0  0  0  0  0  0  0  0  0  0  0  0
    0.3850   21.9240   16.4940 H   0  0  0  0  0  0  0  0  0  0  0  0
    2.0670   22.1820   15.9690 H   0  0  0  0  0  0  0  0  0  0  0  0
    0.3990   20.2550   14.3800 H   0  0  0  0  0  0  0  0  0  0  0  0
    0.0700   21.8630   14.1280 H   0  0  0  0  0  0  0  0  0  0  0  0
    2.8020   20.6670   13.9170 H   0  0  0  0  0  0  0  0  0  0  0  0
    1.8120   23.5210   13.6050 H   0  0  0  0  0  0  0  0  0  0  0  0
    3.3630   22.9430   14.2180 H   0  0  0  0  0  0  0  0  0  0  0  0
    2.7580   23.7980   11.5160 H   0  0  0  0  0  0  0  0  0  0  0  0
    4.2840   23.0930   12.0570 H   0  0  0  0  0  0  0  0  0  0  0  0
    3.7360   20.9680   11.2470 H   0  0  0  0  0  0  0  0  0  0  0  0
    2.5620   21.8200   10.2240 H   0  0  0  0  0  0  0  0  0  0  0  0
    1.6520   19.9090   11.9160 H   0  0  0  0  0  0  0  0  0  0  0  0
    0.7590   21.4420   11.7710 H   0  0  0  0  0  0  0  0  0  0  0  0
    1.6980   16.9070   19.5410 H   0  0  0  0  0  0  0  0  0  0  0  0
   -0.3680   16.0080   20.6210 H   0  0  0  0  0  0  0  0  0  0  0  0
   -1.2660   17.4000   20.0210 H   0  0  0  0  0  0  0  0  0  0  0  0
   -1.0290   17.6970   17.2990 H   0  0  0  0  0  0  0  0  0  0  0  0
   -1.6930   16.4720   15.2680 H   0  0  0  0  0  0  0  0  0  0  0  0
   -1.4330   12.7500   17.5080 H   0  0  0  0  0  0  0  0  0  0  0  0
   -0.8020   14.0150   19.5090 H   0  0  0  0  0  0  0  0  0  0  0  0
   -2.0740   11.7730   14.2790 H   0  0  0  0  0  0  0  0  0  0  0  0
   -0.9350   12.0230   15.5960 H   0  0  0  0  0  0  0  0  0  0  0  0
   -3.0430   13.6730   13.2710 H   0  0  0  0  0  0  0  0  0  0  0  0
   -3.0550   15.2070   14.0970 H   0  0  0  0  0  0  0  0  0  0  0  0
  1  6  1  0  0  0  0
  1  9  1  0  0  0  0
  1 11  1  0  0  0  0
  2 12  1  0  0  0  0
  2 13  1  0  0  0  0
  2 37  1  0  0  0  0
  2 38  1  0  0  0  0
  3 10  1  0  0  0  0
  3 18  1  0  0  0  0
  3 48  1  0  0  0  0
  4 25  2  0  0  0  0
  4 55  1  0  0  0  0
  4 56  1  0  0  0  0
  5 25  1  0  0  0  0
  5 57  1  0  0  0  0
  5 58  1  0  0  0  0
  6  7  1  0  0  0  0
  6 10  1  0  0  0  0
  6 28  1  6  0  0  0
  7  8  1  0  0  0  0
  7 29  1  0  0  0  0
  7 30  1  0  0  0  0
  8  9  1  0  0  0  0
  8 31  1  0  0  0  0
  8 32  1  0  0  0  0
  9 33  1  0  0  0  0
  9 34  1  0  0  0  0
 10 26  2  0  0  0  0
 11 12  1  0  0  0  0
 11 27  2  0  0  0  0
 12 35  1  0  0  0  0
 12 36  1  0  0  0  0
 13 14  1  0  0  0  0
 13 17  1  0  0  0  0
 13 39  1  0  0  0  0
 14 15  1  0  0  0  0
 14 40  1  0  0  0  0
 14 41  1  0  0  0  0
 15 16  1  0  0  0  0
 15 42  1  0  0  0  0
 15 43  1  0  0  0  0
 16 17  1  0  0  0  0
 16 44  1  0  0  0  0
 16 45  1  0  0  0  0
 17 46  1  0  0  0  0
 17 47  1  0  0  0  0
 18 19  1  0  0  0  0
 18 49  1  0  0  0  0
 18 50  1  0  0  0  0
 19 20  2  0  0  0  0
 19 24  1  0  0  0  0
 20 21  1  0  0  0  0
 20 51  1  0  0  0  0
 21 22  2  0  0  0  0
 21 52  1  0  0  0  0
 22 23  1  0  0  0  0
 22 25  1  0  0  0  0
 23 24  2  0  0  0  0
 23 53  1  0  0  0  0
 24 54  1  0  0  0  0
M  CHG  2   2   1   4   1
M  END
>  <number_of_rotatable_bonds>
9

>  <lm5_entropy_jk>
23.942377463858183

>  <deltaG_kcalmol>
-8.91

>  <charge>
2

$$$$
