JAK1_8.pdb
 OpenBabel11252210453D

 42 45  0  0  1  0  0  0  0  0999 V2000
  -10.5080   29.1030    2.0620 C   0  0  0  0  0  0  0  0  0  0  0  0
  -11.5100   29.5400    1.0030 C   0  0  1  0  0  0  0  0  0  0  0  0
  -10.8950   29.9700   -0.2240 O   0  0  0  0  0  0  0  0  0  0  0  0
  -12.5170   28.4530    0.6820 C   0  0  0  0  0  0  0  0  0  0  0  0
  -13.7380   28.7000   -0.0340 N   0  0  0  0  0  0  0  0  0  0  0  0
  -14.4630   27.4990   -0.0050 C   0  0  0  0  0  0  0  0  0  0  0  0
  -13.6120   26.5550    0.6800 C   0  0  0  0  0  0  0  0  0  0  0  0
  -12.4330   27.1800    1.0920 N   0  0  0  0  0  0  0  0  0  0  0  0
  -13.9890   25.1870    0.8630 C   0  0  0  0  0  0  0  0  0  0  0  0
  -15.1450   24.7140    0.4080 N   0  0  0  0  0  0  0  0  0  0  0  0
  -15.9760   25.6280   -0.2280 C   0  0  0  0  0  0  0  0  0  0  0  0
  -15.7180   27.0310   -0.4650 C   0  0  0  0  0  0  0  0  0  0  0  0
  -16.8720   27.5430   -1.1350 C   0  0  0  0  0  0  0  0  0  0  0  0
  -17.7700   26.4940   -1.3070 C   0  0  0  0  0  0  0  0  0  0  0  0
  -17.2270   25.3140   -0.7680 N   0  0  0  0  0  0  0  0  0  0  0  0
  -14.0600   30.0130   -0.6550 C   0  0  1  0  0  0  0  0  0  0  0  0
  -14.3890   29.9260   -2.1590 C   0  0  0  0  0  0  0  0  0  0  0  0
  -14.6080   31.3380   -2.7310 C   0  0  0  0  0  0  0  0  0  0  0  0
  -15.6820   32.1120   -1.9300 C   0  0  1  0  0  0  0  0  0  0  0  0
  -15.3600   32.1410   -0.4160 C   0  0  0  0  0  0  0  0  0  0  0  0
  -15.1920   30.7140    0.1230 C   0  0  0  0  0  0  0  0  0  0  0  0
  -15.7790   33.4920   -2.4110 C   0  0  0  0  0  0  0  0  0  0  0  0
  -15.8470   34.5920   -2.7610 N   0  0  0  0  0  0  0  0  0  0  0  0
  -12.0550   30.4620    1.3400 H   0  0  0  0  0  0  0  0  0  0  0  0
  -13.3140   24.4990    1.3950 H   0  0  0  0  0  0  0  0  0  0  0  0
  -17.0500   28.5480   -1.4680 H   0  0  0  0  0  0  0  0  0  0  0  0
  -18.7330   26.5050   -1.7910 H   0  0  0  0  0  0  0  0  0  0  0  0
  -13.1260   30.6430   -0.5660 H   0  0  0  0  0  0  0  0  0  0  0  0
  -13.5490   29.4410   -2.7090 H   0  0  0  0  0  0  0  0  0  0  0  0
  -15.3130   29.3200   -2.3270 H   0  0  0  0  0  0  0  0  0  0  0  0
  -14.9470   31.2440   -3.7900 H   0  0  0  0  0  0  0  0  0  0  0  0
  -13.6540   31.9130   -2.7240 H   0  0  0  0  0  0  0  0  0  0  0  0
  -16.6820   31.6100   -2.0820 H   0  0  0  0  0  0  0  0  0  0  0  0
  -14.4240   32.7240   -0.2520 H   0  0  0  0  0  0  0  0  0  0  0  0
  -16.1920   32.6550    0.1240 H   0  0  0  0  0  0  0  0  0  0  0  0
  -16.1440   30.1450   -0.0080 H   0  0  0  0  0  0  0  0  0  0  0  0
  -14.9470   30.7470    1.2100 H   0  0  0  0  0  0  0  0  0  0  0  0
  -17.7220   24.4200   -0.6870 H   0  0  0  0  0  0  0  0  0  0  0  0
   -9.9580   29.5610   -0.3150 H   0  0  0  0  0  0  0  0  0  0  0  0
   -9.8250   29.9470    2.3200 H   0  0  0  0  0  0  0  0  0  0  0  0
  -11.0420   28.8090    3.0010 H   0  0  0  0  0  0  0  0  0  0  0  0
   -9.9040   28.2270    1.7330 H   0  0  0  0  0  0  0  0  0  0  0  0
  1  2  1  0  0  0  0
  2  4  1  0  0  0  0
  2  3  1  0  0  0  0
  2 24  1  1  0  0  0
  4  5  1  0  0  0  0
  4  8  2  0  0  0  0
  6  7  1  0  0  0  0
  6  5  1  0  0  0  0
  7  8  1  0  0  0  0
  9  7  2  0  0  0  0
  9 10  1  0  0  0  0
 11 12  1  0  0  0  0
 11 10  2  0  0  0  0
 11 15  1  0  0  0  0
 12 13  1  0  0  0  0
 12  6  2  0  0  0  0
 13 14  2  0  0  0  0
 14 15  1  0  0  0  0
 16 17  1  0  0  0  0
 16 21  1  0  0  0  0
 16  5  1  0  0  0  0
 16 28  1  1  0  0  0
 17 18  1  0  0  0  0
 18 19  1  0  0  0  0
 19 20  1  0  0  0  0
 19 22  1  0  0  0  0
 19 33  1  6  0  0  0
 20 21  1  0  0  0  0
 22 23  3  0  0  0  0
 25  9  1  0  0  0  0
 26 13  1  0  0  0  0
 27 14  1  0  0  0  0
 29 17  1  0  0  0  0
 30 17  1  0  0  0  0
 31 18  1  0  0  0  0
 32 18  1  0  0  0  0
 34 20  1  0  0  0  0
 35 20  1  0  0  0  0
 36 21  1  0  0  0  0
 37 21  1  0  0  0  0
 38 15  1  0  0  0  0
 39  3  1  0  0  0  0
 40  1  1  0  0  0  0
 41  1  1  0  0  0  0
 42  1  1  0  0  0  0
M  END
>  <charge>
0

>  <pKi>
8.72

>  <number_of_rotatable_bonds>
2

>  <lm5_entropy_jk>
24.701218558635038

$$$$
