3sqq.pdb
 OpenBabel11252210453D

 42 44  0  0  0  0  0  0  0  0999 V2000
   65.8690  154.5000  -50.5770 N   0  0  0  0  0  0  0  0  0  0  0  0
   64.5920  155.0500  -48.6470 N   0  0  0  0  0  0  0  0  0  0  0  0
   67.3910  153.5920  -52.2120 N   0  0  0  0  0  0  0  0  0  0  0  0
   62.1090  152.8980  -42.7660 N   0  0  0  0  0  0  0  0  0  0  0  0
   67.4830  152.8300  -49.9030 C   0  0  0  0  0  0  0  0  0  0  0  0
   66.9500  153.6370  -50.9350 C   0  0  0  0  0  0  0  0  0  0  0  0
   65.6040  154.3320  -49.2640 C   0  0  0  0  0  0  0  0  0  0  0  0
   63.8890  154.7030  -47.4540 C   0  0  0  0  0  0  0  0  0  0  0  0
   68.3590  151.7110  -50.1070 C   0  0  0  0  0  0  0  0  0  0  0  0
   68.6160  150.7740  -48.9700 C   0  0  0  0  0  0  0  0  0  0  0  0
   69.9160  150.2710  -48.7460 C   0  0  0  0  0  0  0  0  0  0  0  0
   70.1260  149.3890  -47.6700 C   0  0  0  0  0  0  0  0  0  0  0  0
   69.0710  148.9870  -46.8530 C   0  0  0  0  0  0  0  0  0  0  0  0
   67.7790  149.4570  -47.1020 C   0  0  0  0  0  0  0  0  0  0  0  0
   67.5570  150.3380  -48.1610 C   0  0  0  0  0  0  0  0  0  0  0  0
   64.0710  153.5200  -46.7230 C   0  0  0  0  0  0  0  0  0  0  0  0
   63.3040  153.2960  -45.5760 C   0  0  0  0  0  0  0  0  0  0  0  0
   62.3380  154.2180  -45.1620 C   0  0  0  0  0  0  0  0  0  0  0  0
   62.1610  155.4030  -45.8930 C   0  0  0  0  0  0  0  0  0  0  0  0
   62.9250  155.6470  -47.0270 C   0  0  0  0  0  0  0  0  0  0  0  0
   71.0600  150.6570  -49.6210 C   0  0  0  0  0  0  0  0  0  0  0  0
   68.8640  151.5110  -51.2120 O   0  0  0  0  0  0  0  0  0  0  0  0
   60.8860  155.0730  -43.1130 O   0  0  0  0  0  0  0  0  0  0  0  0
   60.1330  153.1310  -44.4630 O   0  0  0  0  0  0  0  0  0  0  0  0
   66.7500  153.2050  -48.3930 S   0  0  0  0  0  0  0  0  0  0  0  0
   61.2530  153.8660  -43.8720 S   0  0  0  0  0  0  0  0  0  0  0  0
   64.0170  155.6680  -49.2840 H   0  0  0  0  0  0  0  0  0  0  0  0
   66.9830  154.1870  -52.9540 H   0  0  0  0  0  0  0  0  0  0  0  0
   68.1470  152.9330  -52.4630 H   0  0  0  0  0  0  0  0  0  0  0  0
   62.2010  151.8760  -43.0280 H   0  0  0  0  0  0  0  0  0  0  0  0
   61.9550  153.0080  -41.7550 H   0  0  0  0  0  0  0  0  0  0  0  0
   71.1180  148.9870  -47.4770 H   0  0  0  0  0  0  0  0  0  0  0  0
   69.2450  148.2910  -46.0270 H   0  0  0  0  0  0  0  0  0  0  0  0
   66.9450  149.1360  -46.4730 H   0  0  0  0  0  0  0  0  0  0  0  0
   66.5290  150.6540  -48.3460 H   0  0  0  0  0  0  0  0  0  0  0  0
   64.7720  152.7400  -47.0240 H   0  0  0  0  0  0  0  0  0  0  0  0
   63.4830  152.3690  -45.0170 H   0  0  0  0  0  0  0  0  0  0  0  0
   61.4170  156.1550  -45.5980 H   0  0  0  0  0  0  0  0  0  0  0  0
   62.7570  156.5600  -47.6000 H   0  0  0  0  0  0  0  0  0  0  0  0
   70.7490  150.6790  -50.7030 H   0  0  0  0  0  0  0  0  0  0  0  0
   71.8990  149.9340  -49.5360 H   0  0  0  0  0  0  0  0  0  0  0  0
   71.4120  151.6820  -49.3570 H   0  0  0  0  0  0  0  0  0  0  0  0
  1  7  2  0  0  0  0
  2  8  1  0  0  0  0
  2 27  1  0  0  0  0
  3  6  1  0  0  0  0
  3 28  1  0  0  0  0
  3 29  1  0  0  0  0
  4 30  1  0  0  0  0
  4 31  1  0  0  0  0
  5 25  1  0  0  0  0
  6  1  1  0  0  0  0
  6  5  2  0  0  0  0
  7  2  1  0  0  0  0
  7 25  1  0  0  0  0
  8 20  2  0  0  0  0
  8 16  1  0  0  0  0
  9  5  1  0  0  0  0
  9 10  1  0  0  0  0
 10 11  2  0  0  0  0
 10 15  1  0  0  0  0
 11 12  1  0  0  0  0
 12 13  2  0  0  0  0
 12 32  1  0  0  0  0
 13 33  1  0  0  0  0
 14 13  1  0  0  0  0
 14 34  1  0  0  0  0
 15 14  2  0  0  0  0
 15 35  1  0  0  0  0
 16 17  2  0  0  0  0
 16 36  1  0  0  0  0
 17 18  1  0  0  0  0
 17 37  1  0  0  0  0
 18 26  1  0  0  0  0
 19 18  2  0  0  0  0
 19 38  1  0  0  0  0
 20 19  1  0  0  0  0
 20 39  1  0  0  0  0
 21 11  1  0  0  0  0
 21 40  1  0  0  0  0
 21 41  1  0  0  0  0
 21 42  1  0  0  0  0
 22  9  2  0  0  0  0
 24 26  2  0  0  0  0
 26 23  2  0  0  0  0
 26  4  1  0  0  0  0
M  END
>  <lm5_entropy_jk>
31.418959509749985

>  <number_of_rotatable_bonds>
5

>  <IC50_NM>
4800

>  <charge>
0

$$$$
