1US0
 OpenBabel11252210453D

 35 36  0  0  0  0  0  0  0  0999 V2000
   15.3230   -9.6910   18.4120 C   0  0  0  0  0  0  0  0  0  0  0  0
   15.9720  -11.3000   16.2260 C   0  0  0  0  0  0  0  0  0  0  0  0
   16.2040   -9.2090   17.4460 C   0  0  0  0  0  0  0  0  0  0  0  0
   14.8010  -10.9690   18.3090 C   0  0  0  0  0  0  0  0  0  0  0  0
   15.1200  -11.7740   17.2280 C   0  0  0  0  0  0  0  0  0  0  0  0
   16.5190  -10.0050   16.3280 C   0  0  0  0  0  0  0  0  0  0  0  0
   15.7270   -3.6530   10.0340 Br  0  0  0  0  0  0  0  0  0  0  0  0
   14.0410  -11.4610   19.3000 F   0  0  0  0  0  0  0  0  0  0  0  0
   17.4390   -9.5310   15.2470 C   0  0  0  0  0  0  0  0  0  0  0  0
   18.4840   -7.4600   14.1930 C   0  0  0  0  0  0  0  0  0  0  0  0
   19.7790   -5.1950   13.0010 F   0  0  0  0  0  0  0  0  0  0  0  0
   16.8610   -8.0030   17.6290 O   0  0  0  0  0  0  0  0  0  0  0  0
   18.1800  -10.6310   14.2170 S   0  0  0  0  0  0  0  0  0  0  0  0
   17.5710   -8.1650   15.1240 N   0  0  0  0  0  0  0  0  0  0  0  0
   16.6610   -7.0340   18.7110 C   0  0  0  0  0  0  0  0  0  0  0  0
   17.7810   -6.4840   13.2370 C   0  0  0  0  0  0  0  0  0  0  0  0
   16.5580   -4.7930   11.3270 C   0  0  0  0  0  0  0  0  0  0  0  0
   16.4300   -6.6600   12.8850 C   0  0  0  0  0  0  0  0  0  0  0  0
   18.4950   -5.4160   12.6530 C   0  0  0  0  0  0  0  0  0  0  0  0
   17.8930   -4.5810   11.7000 C   0  0  0  0  0  0  0  0  0  0  0  0
   15.8220   -5.8220   11.9300 C   0  0  0  0  0  0  0  0  0  0  0  0
   15.5640   -6.0080   18.4800 C   0  0  0  0  0  0  0  0  0  0  0  0
   15.0490   -5.5420   19.4830 O   0  0  0  0  0  0  0  0  0  0  0  0
   15.1670   -5.8020   17.3490 O   0  5  0  0  0  0  0  0  0  0  0  0
   16.4510   -7.5110   19.6670 H   0  0  0  0  0  0  0  0  0  0  0  0
   17.5660   -6.4400   18.8530 H   0  0  0  0  0  0  0  0  0  0  0  0
   19.2410   -6.9170   14.7760 H   0  0  0  0  0  0  0  0  0  0  0  0
   19.0400   -8.2070   13.6120 H   0  0  0  0  0  0  0  0  0  0  0  0
   14.7090  -12.7800   17.1730 H   0  0  0  0  0  0  0  0  0  0  0  0
   16.2080  -11.9450   15.3770 H   0  0  0  0  0  0  0  0  0  0  0  0
   14.7740   -5.9650   11.6670 H   0  0  0  0  0  0  0  0  0  0  0  0
   18.4570   -3.7560   11.2740 H   0  0  0  0  0  0  0  0  0  0  0  0
   15.8500   -7.4510   13.3490 H   0  0  0  0  0  0  0  0  0  0  0  0
   15.0930   -9.1070   19.2850 H   0  0  0  0  0  0  0  0  0  0  0  0
   17.1110   -7.6440   15.8710 H   0  0  0  0  0  0  0  0  0  0  0  0
  1 34  1  0  0  0  0
  2  6  2  0  0  0  0
  2  5  1  0  0  0  0
  3 12  1  0  0  0  0
  3  1  2  0  0  0  0
  4  1  1  0  0  0  0
  4  8  1  0  0  0  0
  5  4  2  0  0  0  0
  6  3  1  0  0  0  0
  7 17  1  0  0  0  0
  9 14  1  0  0  0  0
  9  6  1  0  0  0  0
 10 27  1  0  0  0  0
 10 14  1  0  0  0  0
 12 15  1  0  0  0  0
 13  9  2  0  0  0  0
 14 35  1  0  0  0  0
 15 26  1  0  0  0  0
 15 25  1  0  0  0  0
 16 10  1  0  0  0  0
 17 20  2  0  0  0  0
 17 21  1  0  0  0  0
 18 16  1  0  0  0  0
 18 33  1  0  0  0  0
 19 11  1  0  0  0  0
 19 16  2  0  0  0  0
 20 19  1  0  0  0  0
 21 18  2  0  0  0  0
 22 15  1  0  0  0  0
 22 23  2  0  0  0  0
 24 22  1  0  0  0  0
 28 10  1  0  0  0  0
 29  5  1  0  0  0  0
 30  2  1  0  0  0  0
 31 21  1  0  0  0  0
 32 20  1  0  0  0  0
M  CHG  1  24  -1
M  END
>  <lm5_entropy_jk>
26.450573499596743

>  <number_of_rotatable_bonds>
7

>  <deltaG_kcalmol>
-9.56

>  <charge>
-1

$$$$
