1US0
 OpenBabel11252210453D

 35 36  0  0  0  0  0  0  0  0999 V2000
   15.2100   -9.6920   18.3790 C   0  0  0  0  0  0  0  0  0  0  0  0
   15.9240  -11.2890   16.2080 C   0  0  0  0  0  0  0  0  0  0  0  0
   16.0600   -9.1770   17.4070 C   0  0  0  0  0  0  0  0  0  0  0  0
   14.7590  -10.9990   18.2990 C   0  0  0  0  0  0  0  0  0  0  0  0
   15.1070  -11.7980   17.2230 C   0  0  0  0  0  0  0  0  0  0  0  0
   16.4050   -9.9670   16.2980 C   0  0  0  0  0  0  0  0  0  0  0  0
   15.5480   -3.5450    9.9120 Br  0  0  0  0  0  0  0  0  0  0  0  0
   14.0660  -11.5240   19.3200 F   0  0  0  0  0  0  0  0  0  0  0  0
   17.2920   -9.4460   15.2140 C   0  0  0  0  0  0  0  0  0  0  0  0
   18.2100   -7.2980   14.1860 C   0  0  0  0  0  0  0  0  0  0  0  0
   19.4480   -4.9680   13.1200 F   0  0  0  0  0  0  0  0  0  0  0  0
   16.6760   -7.9490   17.5790 O   0  0  0  0  0  0  0  0  0  0  0  0
   18.1030  -10.5120   14.2050 S   0  0  0  0  0  0  0  0  0  0  0  0
   17.2990   -8.0750   15.0560 N   0  0  0  0  0  0  0  0  0  0  0  0
   16.4880   -6.9940   18.6750 C   0  0  0  0  0  0  0  0  0  0  0  0
   17.5070   -6.3400   13.2100 C   0  0  0  0  0  0  0  0  0  0  0  0
   16.3400   -4.6810   11.2330 C   0  0  0  0  0  0  0  0  0  0  0  0
   16.1830   -6.5510   12.7870 C   0  0  0  0  0  0  0  0  0  0  0  0
   18.2070   -5.2420   12.6760 C   0  0  0  0  0  0  0  0  0  0  0  0
   17.6460   -4.4350   11.6770 C   0  0  0  0  0  0  0  0  0  0  0  0
   15.6010   -5.7290   11.8020 C   0  0  0  0  0  0  0  0  0  0  0  0
   15.3780   -5.9760   18.4750 C   0  0  0  0  0  0  0  0  0  0  0  0
   14.9200   -5.4860   19.4970 O   0  0  0  0  0  0  0  0  0  0  0  0
   14.9230   -5.8040   17.3610 O   0  5  0  0  0  0  0  0  0  0  0  0
   16.3070   -7.4820   19.6310 H   0  0  0  0  0  0  0  0  0  0  0  0
   17.3890   -6.3910   18.8000 H   0  0  0  0  0  0  0  0  0  0  0  0
   18.8980   -6.7220   14.8210 H   0  0  0  0  0  0  0  0  0  0  0  0
   18.8510   -7.9920   13.6270 H   0  0  0  0  0  0  0  0  0  0  0  0
   14.7490  -12.8240   17.1860 H   0  0  0  0  0  0  0  0  0  0  0  0
   16.1840  -11.9260   15.3600 H   0  0  0  0  0  0  0  0  0  0  0  0
   14.5700   -5.9000   11.4940 H   0  0  0  0  0  0  0  0  0  0  0  0
   18.2110   -3.5950   11.2840 H   0  0  0  0  0  0  0  0  0  0  0  0
   15.6010   -7.3500   13.2300 H   0  0  0  0  0  0  0  0  0  0  0  0
   14.9620   -9.1130   19.2480 H   0  0  0  0  0  0  0  0  0  0  0  0
   16.7790   -7.5880   15.7870 H   0  0  0  0  0  0  0  0  0  0  0  0
  1 34  1  0  0  0  0
  2  6  2  0  0  0  0
  2  5  1  0  0  0  0
  3 12  1  0  0  0  0
  3  1  2  0  0  0  0
  4  1  1  0  0  0  0
  4  8  1  0  0  0  0
  5  4  2  0  0  0  0
  6  3  1  0  0  0  0
  7 17  1  0  0  0  0
  9 14  1  0  0  0  0
  9  6  1  0  0  0  0
 10 27  1  0  0  0  0
 10 14  1  0  0  0  0
 12 15  1  0  0  0  0
 13  9  2  0  0  0  0
 14 35  1  0  0  0  0
 15 26  1  0  0  0  0
 15 25  1  0  0  0  0
 16 10  1  0  0  0  0
 17 20  2  0  0  0  0
 17 21  1  0  0  0  0
 18 16  1  0  0  0  0
 18 33  1  0  0  0  0
 19 11  1  0  0  0  0
 19 16  2  0  0  0  0
 20 19  1  0  0  0  0
 21 18  2  0  0  0  0
 22 15  1  0  0  0  0
 22 23  2  0  0  0  0
 24 22  1  0  0  0  0
 28 10  1  0  0  0  0
 29  5  1  0  0  0  0
 30  2  1  0  0  0  0
 31 21  1  0  0  0  0
 32 20  1  0  0  0  0
M  CHG  1  24  -1
M  END
>  <lm5_entropy_jk>
26.450573499596743

>  <number_of_rotatable_bonds>
7

>  <deltaG_kcalmol>
-9.56

>  <charge>
-1

$$$$
