2OXD
 OpenBabel11252210453D

 16 17  0  0  1  0  0  0  0  0999 V2000
   21.2310    8.4290   20.5910 C   0  0  0  0  0  0  0  0  0  0  0  0
   21.4970    8.8100   19.2620 C   0  0  0  0  0  0  0  0  0  0  0  0
   22.4250    8.0990   18.4860 C   0  0  0  0  0  0  0  0  0  0  0  0
   21.8380    7.2970   21.1530 C   0  0  0  0  0  0  0  0  0  0  0  0
   23.9500    6.0500   18.5070 N   0  0  0  0  0  0  0  0  0  0  0  0
   22.7020    6.5480   20.3670 C   0  0  0  0  0  0  0  0  0  0  0  0
   23.0240    6.9690   19.0310 C   0  0  0  0  0  0  0  0  0  0  0  0
   24.8410    4.0070   19.3210 O   0  0  0  0  0  0  0  0  0  0  0  0
   24.1520    4.9880   19.4610 C   0  0  0  0  0  0  0  0  0  0  0  0
   23.4180    5.3680   20.6390 N   0  0  0  0  0  0  0  0  0  0  0  0
   21.5810    6.6560   22.9080 Br  0  0  0  0  0  0  0  0  0  0  0  0
   20.0350    9.4230   21.6700 Br  0  0  0  0  0  0  0  0  0  0  0  0
   22.9700    8.5530   16.7380 Br  0  0  0  0  0  0  0  0  0  0  0  0
   20.6090   10.2990   18.4880 Br  0  0  0  0  0  0  0  0  0  0  0  0
   24.3120    6.0720   17.5520 H   0  0  0  0  0  0  0  0  0  0  0  0
   23.2360    4.7620   21.4460 H   0  0  0  0  0  0  0  0  0  0  0  0
  1  2  2  0  0  0  0
  1  4  1  0  0  0  0
  1 12  1  0  0  0  0
  2  3  1  0  0  0  0
  2 14  1  0  0  0  0
  3  7  2  0  0  0  0
  3 13  1  0  0  0  0
  4  6  2  0  0  0  0
  4 11  1  0  0  0  0
  5  7  1  0  0  0  0
  5  9  1  0  0  0  0
  5 15  1  0  0  0  0
  6  7  1  0  0  0  0
  6 10  1  0  0  0  0
  8  9  2  0  0  0  0
  9 10  1  0  0  0  0
 10 16  1  0  0  0  0
M  END
>  <charge>
0

>  <Ki_NM>
150

>  <number_of_rotatable_bonds>
0

>  <lm5_entropy_jk>
7.2278

$$$$
