4EHZ
 OpenBabel11252210453D

 37 40  0  0  0  0  0  0  0  0999 V2000
  -11.6460   29.2390    1.0050 C   0  0  0  0  0  0  0  0  0  0  0  0
  -12.6740   28.2020    0.7970 C   0  0  0  0  0  0  0  0  0  0  0  0
  -12.6210   26.9430    1.2410 N   0  0  0  0  0  0  0  0  0  0  0  0
  -13.8000   26.3110    0.8160 C   0  0  0  0  0  0  0  0  0  0  0  0
  -14.1670   24.9380    0.9720 C   0  0  0  0  0  0  0  0  0  0  0  0
  -15.3030   24.4610    0.4720 N   0  0  0  0  0  0  0  0  0  0  0  0
  -16.1240   25.3670   -0.1800 C   0  0  0  0  0  0  0  0  0  0  0  0
  -15.8780   26.7760   -0.3850 C   0  0  0  0  0  0  0  0  0  0  0  0
  -14.6400   27.2370    0.1120 C   0  0  0  0  0  0  0  0  0  0  0  0
  -13.9080   28.4440    0.0730 N   0  0  0  0  0  0  0  0  0  0  0  0
  -14.2180   29.6690   -0.6840 C   0  0  0  0  0  0  0  0  0  0  0  0
  -14.5060   29.3660   -2.1740 C   0  0  0  0  0  0  0  0  0  0  0  0
  -14.9630   30.6080   -2.9440 C   0  0  0  0  0  0  0  0  0  0  0  0
  -16.1480   31.2770   -2.2330 N   0  3  0  0  0  0  0  0  0  0  0  0
  -15.7510   31.6760   -0.8050 C   0  0  0  0  0  0  0  0  0  0  0  0
  -15.3870   30.4250   -0.0060 C   0  0  0  0  0  0  0  0  0  0  0  0
  -17.0160   27.2860   -1.0860 C   0  0  0  0  0  0  0  0  0  0  0  0
  -17.8900   26.2260   -1.3090 C   0  0  0  0  0  0  0  0  0  0  0  0
  -17.3480   25.0490   -0.7780 N   0  0  0  0  0  0  0  0  0  0  0  0
  -13.4970   24.2500    1.5140 H   0  0  0  0  0  0  0  0  0  0  0  0
  -13.3170   30.3480   -0.6580 H   0  0  0  0  0  0  0  0  0  0  0  0
  -13.5660   28.9970   -2.6630 H   0  0  0  0  0  0  0  0  0  0  0  0
  -15.2810   28.5600   -2.2700 H   0  0  0  0  0  0  0  0  0  0  0  0
  -14.1350   31.3650   -3.0240 H   0  0  0  0  0  0  0  0  0  0  0  0
  -15.3120   30.3010   -3.9720 H   0  0  0  0  0  0  0  0  0  0  0  0
  -16.4580   32.1570   -2.7740 H   0  0  0  0  0  0  0  0  0  0  0  0
  -16.9600   30.6020   -2.2070 H   0  0  0  0  0  0  0  0  0  0  0  0
  -16.6080   32.2440   -0.3440 H   0  0  0  0  0  0  0  0  0  0  0  0
  -14.8720   32.3810   -0.8780 H   0  0  0  0  0  0  0  0  0  0  0  0
  -16.2630   29.7380    0.0930 H   0  0  0  0  0  0  0  0  0  0  0  0
  -15.0670   30.7370    1.0250 H   0  0  0  0  0  0  0  0  0  0  0  0
  -17.1980   28.2900   -1.4030 H   0  0  0  0  0  0  0  0  0  0  0  0
  -18.8370   26.2450   -1.8290 H   0  0  0  0  0  0  0  0  0  0  0  0
  -17.8450   24.1510   -0.7040 H   0  0  0  0  0  0  0  0  0  0  0  0
  -11.0690   29.0280    1.9500 H   0  0  0  0  0  0  0  0  0  0  0  0
  -12.0960   30.2560    1.1170 H   0  0  0  0  0  0  0  0  0  0  0  0
  -10.9270   29.2500    0.1510 H   0  0  0  0  0  0  0  0  0  0  0  0
  1  2  1  0  0  0  0
  2 10  1  0  0  0  0
  2  3  2  0  0  0  0
  4  5  2  0  0  0  0
  4  9  1  0  0  0  0
  4  3  1  0  0  0  0
  5  6  1  0  0  0  0
  7  8  1  0  0  0  0
  7 19  1  0  0  0  0
  7  6  2  0  0  0  0
  8  9  2  0  0  0  0
  9 10  1  0  0  0  0
 11 12  1  0  0  0  0
 11 16  1  0  0  0  0
 11 10  1  0  0  0  0
 12 13  1  0  0  0  0
 13 14  1  0  0  0  0
 15 16  1  0  0  0  0
 15 14  1  0  0  0  0
 17 18  2  0  0  0  0
 17  8  1  0  0  0  0
 18 19  1  0  0  0  0
 20  5  1  0  0  0  0
 21 11  1  0  0  0  0
 22 12  1  0  0  0  0
 23 12  1  0  0  0  0
 24 13  1  0  0  0  0
 25 13  1  0  0  0  0
 26 14  1  0  0  0  0
 27 14  1  0  0  0  0
 28 15  1  0  0  0  0
 29 15  1  0  0  0  0
 30 16  1  0  0  0  0
 31 16  1  0  0  0  0
 32 17  1  0  0  0  0
 33 18  1  0  0  0  0
 34 19  1  0  0  0  0
 35  1  1  0  0  0  0
 36  1  1  0  0  0  0
 37  1  1  0  0  0  0
M  CHG  1  14   1
M  END
>  <charge>
1

>  <pKi>
8

>  <number_of_rotatable_bonds>
1

>  <lm5_entropy_jk>
22.786904138289753

$$$$
