3LK8
 OpenBabel11252210453D

 29 29  0  0  0  0  0  0  0  0999 V2000
    5.6440   25.6480    4.9930 C   0  0  0  0  0  0  0  0  0  0  0  0
    7.5290   26.6960    2.5140 N   0  0  0  0  0  0  0  0  0  0  0  0
    9.3440   26.2580    4.1600 O   0  0  0  0  0  0  0  0  0  0  0  0
    7.9550   26.7290    4.1000 S   0  0  0  0  0  0  0  0  0  0  0  0
    4.8490   24.5590    5.3490 C   0  0  0  0  0  0  0  0  0  0  0  0
    8.9280   23.8570    0.7410 N   0  0  0  0  0  0  0  0  0  0  0  0
    7.4570   27.9850    4.6510 O   0  0  0  0  0  0  0  0  0  0  0  0
    6.9320   25.3910    4.5080 C   0  0  0  0  0  0  0  0  0  0  0  0
    4.5750   22.1600    5.6000 O   0  0  0  0  0  0  0  0  0  0  0  0
    5.3210   23.2540    5.2140 C   0  0  0  0  0  0  0  0  0  0  0  0
    6.8810   24.7120    0.2450 O   0  0  0  0  0  0  0  0  0  0  0  0
    6.5870   23.0300    4.6930 C   0  0  0  0  0  0  0  0  0  0  0  0
    8.6050   22.5570    0.2000 O   0  0  0  0  0  0  0  0  0  0  0  0
    7.4230   24.0870    4.3490 C   0  0  0  0  0  0  0  0  0  0  0  0
    8.4550   26.1900    1.3770 C   0  0  0  0  0  0  0  0  0  0  0  0
    8.0020   24.8720    0.7280 C   0  0  0  0  0  0  0  0  0  0  0  0
    3.2250   22.2270    6.1350 C   0  0  0  0  0  0  0  0  0  0  0  0
    5.2470   26.6630    5.1050 H   0  0  0  0  0  0  0  0  0  0  0  0
    6.9360   25.9460    2.8830 H   0  0  0  0  0  0  0  0  0  0  0  0
    3.8480   24.7350    5.7200 H   0  0  0  0  0  0  0  0  0  0  0  0
    9.8680   23.9630    1.1340 H   0  0  0  0  0  0  0  0  0  0  0  0
    6.9170   22.0070    4.5510 H   0  0  0  0  0  0  0  0  0  0  0  0
    8.6360   21.9410    0.9920 H   0  0  0  0  0  0  0  0  0  0  0  0
    8.4280   23.8740    3.9650 H   0  0  0  0  0  0  0  0  0  0  0  0
    8.5170   26.9160    0.5480 H   0  0  0  0  0  0  0  0  0  0  0  0
    9.5000   26.0570    1.7100 H   0  0  0  0  0  0  0  0  0  0  0  0
    2.8510   21.2160    6.3520 H   0  0  0  0  0  0  0  0  0  0  0  0
    2.5360   22.6890    5.4130 H   0  0  0  0  0  0  0  0  0  0  0  0
    3.1970   22.8020    7.0700 H   0  0  0  0  0  0  0  0  0  0  0  0
  1  8  2  0  0  0  0
  1  5  1  0  0  0  0
  1 18  1  0  0  0  0
  2 15  1  0  0  0  0
  2  4  1  0  0  0  0
  2 19  1  0  0  0  0
  3  4  2  0  0  0  0
  4  8  1  0  0  0  0
  4  7  2  0  0  0  0
  5 10  2  0  0  0  0
  5 20  1  0  0  0  0
  6 13  1  0  0  0  0
  6 16  1  0  0  0  0
  6 21  1  0  0  0  0
  8 14  1  0  0  0  0
  9 10  1  0  0  0  0
  9 17  1  0  0  0  0
 10 12  1  0  0  0  0
 11 16  2  0  0  0  0
 12 14  2  0  0  0  0
 12 22  1  0  0  0  0
 13 23  1  0  0  0  0
 14 24  1  0  0  0  0
 15 16  1  0  0  0  0
 15 25  1  0  0  0  0
 15 26  1  0  0  0  0
 17 27  1  0  0  0  0
 17 28  1  0  0  0  0
 17 29  1  0  0  0  0
M  END
>  <COMPND>
3lk8.pdb

>  <AUTHOR>
GENERATED BY OPEN BABEL 2.3.1

>  <MASTER>
0    0    0    0    0    0    0    0   29    0   29    0

>  <lm5_entropy_jk>
30.773132133652176

>  <number_of_rotatable_bonds>
6

>  <deltaG_kcalmol>
-10.52

>  <charge>
0

$$$$
