3LK8
 OpenBabel11252210453D

 29 29  0  0  0  0  0  0  0  0999 V2000
    5.5120   25.2520    4.5480 C   0  0  0  0  0  0  0  0  0  0  0  0
    7.6520   25.7740    2.2890 N   0  0  0  0  0  0  0  0  0  0  0  0
    9.3190   25.7580    4.1460 O   0  0  0  0  0  0  0  0  0  0  0  0
    7.9470   26.1830    3.8500 S   0  0  0  0  0  0  0  0  0  0  0  0
    4.6510   24.2440    4.9820 C   0  0  0  0  0  0  0  0  0  0  0  0
    9.2950   23.7140   -0.4540 N   0  0  0  0  0  0  0  0  0  0  0  0
    7.3940   27.5150    4.0670 O   0  0  0  0  0  0  0  0  0  0  0  0
    6.8690   24.9470    4.4100 C   0  0  0  0  0  0  0  0  0  0  0  0
    4.3340   21.9670    5.7690 O   0  0  0  0  0  0  0  0  0  0  0  0
    5.1370   22.9700    5.2700 C   0  0  0  0  0  0  0  0  0  0  0  0
    7.0940   24.1040    0.0110 O   0  0  0  0  0  0  0  0  0  0  0  0
    6.4750   22.6810    5.0590 C   0  0  0  0  0  0  0  0  0  0  0  0
    9.0580   22.4820   -1.2070 O   0  0  0  0  0  0  0  0  0  0  0  0
    7.3680   23.6540    4.6250 C   0  0  0  0  0  0  0  0  0  0  0  0
    8.7470   25.3690    1.2760 C   0  0  0  0  0  0  0  0  0  0  0  0
    8.2810   24.3550    0.2200 C   0  0  0  0  0  0  0  0  0  0  0  0
    2.9310   22.1140    6.1150 C   0  0  0  0  0  0  0  0  0  0  0  0
    5.1090   26.2400    4.3090 H   0  0  0  0  0  0  0  0  0  0  0  0
    7.2290   24.9670    2.7570 H   0  0  0  0  0  0  0  0  0  0  0  0
    3.5940   24.4520    5.0800 H   0  0  0  0  0  0  0  0  0  0  0  0
   10.2620   24.0100   -0.3350 H   0  0  0  0  0  0  0  0  0  0  0  0
    6.8080   21.6650    5.2180 H   0  0  0  0  0  0  0  0  0  0  0  0
    9.0730   21.7550   -0.5220 H   0  0  0  0  0  0  0  0  0  0  0  0
    8.4170   23.3840    4.4500 H   0  0  0  0  0  0  0  0  0  0  0  0
    9.1570   26.2350    0.7260 H   0  0  0  0  0  0  0  0  0  0  0  0
    9.6070   24.8960    1.7820 H   0  0  0  0  0  0  0  0  0  0  0  0
    2.5330   21.1560    6.4840 H   0  0  0  0  0  0  0  0  0  0  0  0
    2.3330   22.4080    5.2400 H   0  0  0  0  0  0  0  0  0  0  0  0
    2.7970   22.8610    6.9070 H   0  0  0  0  0  0  0  0  0  0  0  0
  1  8  2  0  0  0  0
  1  5  1  0  0  0  0
  1 18  1  0  0  0  0
  2 15  1  0  0  0  0
  2  4  1  0  0  0  0
  2 19  1  0  0  0  0
  3  4  2  0  0  0  0
  4  8  1  0  0  0  0
  4  7  2  0  0  0  0
  5 10  2  0  0  0  0
  5 20  1  0  0  0  0
  6 13  1  0  0  0  0
  6 16  1  0  0  0  0
  6 21  1  0  0  0  0
  8 14  1  0  0  0  0
  9 10  1  0  0  0  0
  9 17  1  0  0  0  0
 10 12  1  0  0  0  0
 11 16  2  0  0  0  0
 12 14  2  0  0  0  0
 12 22  1  0  0  0  0
 13 23  1  0  0  0  0
 14 24  1  0  0  0  0
 15 16  1  0  0  0  0
 15 25  1  0  0  0  0
 15 26  1  0  0  0  0
 17 27  1  0  0  0  0
 17 28  1  0  0  0  0
 17 29  1  0  0  0  0
M  END
>  <COMPND>
3lk8.pdb

>  <AUTHOR>
GENERATED BY OPEN BABEL 2.3.1

>  <MASTER>
0    0    0    0    0    0    0    0   29    0   29    0

>  <lm5_entropy_jk>
30.773132133652176

>  <number_of_rotatable_bonds>
6

>  <deltaG_kcalmol>
-10.52

>  <charge>
0

$$$$
