5NY3
 OpenBabel11252210453D

 38 39  0  0  0  0  0  0  0  0999 V2000
   -3.9320    6.7170   12.7390 C   0  0  0  0  0  0  0  0  0  0  0  0
   -5.4270    3.7690   15.5270 C   0  0  0  0  0  0  0  0  0  0  0  0
   -5.8650    1.3340   16.0720 N   0  5  0  0  0  0  0  0  0  0  0  0
   -4.9590    2.7450   17.8010 O   0  0  0  0  0  0  0  0  0  0  0  0
   -4.2320    3.5260   14.8250 C   0  0  0  0  0  0  0  0  0  0  0  0
   -7.3330    3.0670   17.1170 O   0  0  0  0  0  0  0  0  0  0  0  0
   -3.7820    4.4680   13.8910 C   0  0  0  0  0  0  0  0  0  0  0  0
   -4.4740    5.6650   13.6850 C   0  0  0  0  0  0  0  0  0  0  0  0
   -5.6510    5.9050   14.3980 C   0  0  0  0  0  0  0  0  0  0  0  0
   -6.1370    4.9670   15.3190 C   0  0  0  0  0  0  0  0  0  0  0  0
   -2.4420    7.0440   13.0020 C   0  0  0  0  0  0  0  0  0  0  0  0
   -2.1120    8.3590   12.4100 N   0  0  0  0  0  0  0  0  0  0  0  0
   -1.7240    9.4480   13.1410 C   0  0  0  0  0  0  0  0  0  0  0  0
   -1.6050   10.5760   12.3930 N   0  0  0  0  0  0  0  0  0  0  0  0
   -1.5200    9.4020   14.3360 O   0  0  0  0  0  0  0  0  0  0  0  0
   -1.5820   14.2840   12.5230 C   0  0  0  0  0  0  0  0  0  0  0  0
   -1.8530   12.9600   12.1240 C   0  0  0  0  0  0  0  0  0  0  0  0
   -1.2950   11.8790   12.8180 C   0  0  0  0  0  0  0  0  0  0  0  0
   -0.7400   14.5210   13.6200 C   0  0  0  0  0  0  0  0  0  0  0  0
   -0.4240   12.1290   13.8910 C   0  0  0  0  0  0  0  0  0  0  0  0
   -0.1490   13.4480   14.3010 C   0  0  0  0  0  0  0  0  0  0  0  0
   -0.4240   16.1620   14.1400 Cl  0  0  0  0  0  0  0  0  0  0  0  0
   -5.9830    2.6890   16.7970 S   0  0  0  0  0  0  0  0  0  0  0  0
   -2.2370    8.5020   11.4160 H   0  0  0  0  0  0  0  0  0  0  0  0
   -4.0740    6.3880   11.7000 H   0  0  0  0  0  0  0  0  0  0  0  0
   -4.5240    7.6360   12.8410 H   0  0  0  0  0  0  0  0  0  0  0  0
   -6.1800    6.8440   14.2660 H   0  0  0  0  0  0  0  0  0  0  0  0
   -7.0380    5.1960   15.8960 H   0  0  0  0  0  0  0  0  0  0  0  0
   -1.8370   10.4810   11.4160 H   0  0  0  0  0  0  0  0  0  0  0  0
   -2.0260   15.1250   11.9890 H   0  0  0  0  0  0  0  0  0  0  0  0
   -2.5190   12.7750   11.2820 H   0  0  0  0  0  0  0  0  0  0  0  0
   -5.0330    1.2960   16.7200 H   0  0  0  0  0  0  0  0  0  0  0  0
    0.0410   11.2980   14.4150 H   0  0  0  0  0  0  0  0  0  0  0  0
    0.5140   13.6390   15.1460 H   0  0  0  0  0  0  0  0  0  0  0  0
   -3.6400    2.6260   15.0060 H   0  0  0  0  0  0  0  0  0  0  0  0
   -2.8650    4.2770   13.3410 H   0  0  0  0  0  0  0  0  0  0  0  0
   -2.2560    7.0650   14.0920 H   0  0  0  0  0  0  0  0  0  0  0  0
   -1.7850    6.2600   12.5860 H   0  0  0  0  0  0  0  0  0  0  0  0
  1  8  1  0  0  0  0
  1 11  1  0  0  0  0
  2  5  2  0  0  0  0
  2 10  1  0  0  0  0
  2 23  1  0  0  0  0
  3 23  1  0  0  0  0
  4 23  2  0  0  0  0
  5  7  1  0  0  0  0
  6 23  2  0  0  0  0
  7  8  2  0  0  0  0
  8  9  1  0  0  0  0
  9 10  2  0  0  0  0
 11 12  1  0  0  0  0
 12 13  1  0  0  0  0
 13 14  1  0  0  0  0
 13 15  2  0  0  0  0
 14 18  1  0  0  0  0
 16 17  2  0  0  0  0
 16 19  1  0  0  0  0
 17 18  1  0  0  0  0
 18 20  2  0  0  0  0
 19 21  2  0  0  0  0
 20 21  1  0  0  0  0
 22 19  1  0  0  0  0
 24 12  1  0  0  0  0
 25  1  1  0  0  0  0
 26  1  1  0  0  0  0
 27  9  1  0  0  0  0
 28 10  1  0  0  0  0
 29 14  1  0  0  0  0
 30 16  1  0  0  0  0
 31 17  1  0  0  0  0
 32  3  1  0  0  0  0
 33 20  1  0  0  0  0
 34 21  1  0  0  0  0
 35  5  1  0  0  0  0
 36  7  1  0  0  0  0
 37 11  1  0  0  0  0
 38 11  1  0  0  0  0
M  CHG  1   3  -1
M  END
>  <deltaG_kcalmol>
-10.2

>  <number_of_rotatable_bonds>
7

>  <charge>
-1

>  <lm5_entropy_jk>
27.943820470677032

$$$$
