3OXC
 OpenBabel11252210453D

100104  0  0  1  0  0  0  0  0999 V2000
    6.6380   -6.2380   17.3880 N   0  0  0  0  0  0  0  0  0  0  0  0
    7.5400   -5.0990   17.1180 C   0  0  1  0  0  0  0  0  0  0  0  0
    5.0210   -2.3600   16.0800 C   0  0  2  0  0  0  0  0  0  0  0  0
    6.2440   -6.6320   18.6500 C   0  0  0  0  0  0  0  0  0  0  0  0
    6.6530   -6.0610   19.6500 O   0  0  0  0  0  0  0  0  0  0  0  0
    8.9370   -5.6480   16.7090 C   0  0  0  0  0  0  0  0  0  0  0  0
    3.5550   -2.5120   16.5580 C   0  0  0  0  0  0  0  0  0  0  0  0
    9.7430   -6.0070   17.9220 C   0  0  0  0  0  0  0  0  0  0  0  0
    3.0640   -3.9370   16.4440 C   0  0  0  0  0  0  0  0  0  0  0  0
    1.5540    0.5730   11.8220 C   0  0  0  0  0  0  0  0  0  0  0  0
    2.6460   -4.4460   15.2080 C   0  0  0  0  0  0  0  0  0  0  0  0
    3.0550   -4.7610   17.5780 C   0  0  0  0  0  0  0  0  0  0  0  0
   10.3530   -7.2040   17.8920 N   0  0  0  0  0  0  0  0  0  0  0  0
    9.8390   -5.2710   18.8740 O   0  0  0  0  0  0  0  0  0  0  0  0
    2.2140   -5.7800   15.1090 C   0  0  0  0  0  0  0  0  0  0  0  0
    2.6360   -6.0950   17.4800 C   0  0  0  0  0  0  0  0  0  0  0  0
    2.2230   -6.6060   16.2430 C   0  0  0  0  0  0  0  0  0  0  0  0
    5.1510    0.0630   15.2190 C   0  0  0  0  0  0  0  0  0  0  0  0
    6.8760   -4.0460   16.1860 C   0  0  0  0  0  0  0  0  0  0  0  0
    5.0190   -8.4900   17.5530 N   0  0  0  0  0  0  0  0  0  0  0  0
    7.2260   -3.8180   15.0390 O   0  0  0  0  0  0  0  0  0  0  0  0
    5.2530   -7.7950   18.6960 C   0  0  0  0  0  0  0  0  0  0  0  0
    5.8370   -3.3630   16.7680 N   0  0  0  0  0  0  0  0  0  0  0  0
    5.2210   -0.3830   17.5160 O   0  0  0  0  0  0  0  0  0  0  0  0
    4.5520   -8.0920   19.8830 C   0  0  0  0  0  0  0  0  0  0  0  0
    7.3080    1.8280   11.8570 C   0  0  2  0  0  0  0  0  0  0  0  0
    2.8820    0.9080   12.0990 N   0  0  0  0  0  0  0  0  0  0  0  0
    3.8000   -1.1020   12.7400 O   0  0  0  0  0  0  0  0  0  0  0  0
    3.5760   -9.1040   19.8770 C   0  0  0  0  0  0  0  0  0  0  0  0
    3.3350   -9.7980   18.6790 C   0  0  0  0  0  0  0  0  0  0  0  0
    2.3550  -10.8070   18.6260 C   0  0  0  0  0  0  0  0  0  0  0  0
    2.1210  -11.4970   17.4240 C   0  0  0  0  0  0  0  0  0  0  0  0
    2.8680  -11.1800   16.2780 C   0  0  0  0  0  0  0  0  0  0  0  0
    8.1040    1.0120   12.9050 C   0  0  2  0  0  0  0  0  0  0  0  0
    3.8440  -10.1690   16.3380 C   0  0  0  0  0  0  0  0  0  0  0  0
    4.0890   -9.4650   17.5290 C   0  0  0  0  0  0  0  0  0  0  0  0
    5.6250   -0.9350   16.2770 C   0  0  1  0  0  0  0  0  0  0  0  0
    0.8330    1.8200   11.5120 C   0  0  0  0  0  0  0  0  0  0  0  0
    5.9630    0.1110   13.9300 N   0  3  1  0  0  0  0  0  0  0  0  0
    5.1480    0.8670   12.8880 C   0  0  1  0  0  0  0  0  0  0  0  0
    0.9180   -0.0420   12.9980 C   0  0  0  0  0  0  0  0  0  0  0  0
    5.9260    1.2030   11.5800 C   0  0  0  0  0  0  0  0  0  0  0  0
    1.4870   -0.3060   10.6480 C   0  0  0  0  0  0  0  0  0  0  0  0
    8.0850    1.9430   10.5270 C   0  0  0  0  0  0  0  0  0  0  0  0
    8.5840    0.5760    9.9900 C   0  0  0  0  0  0  0  0  0  0  0  0
    9.3620   -0.2100   11.0660 C   0  0  0  0  0  0  0  0  0  0  0  0
    8.5110   -0.3760   12.3490 C   0  0  0  0  0  0  0  0  0  0  0  0
    7.2540    0.8710   14.1800 C   0  0  0  0  0  0  0  0  0  0  0  0
    3.8810    0.1050   12.5600 C   0  0  0  0  0  0  0  0  0  0  0  0
    6.2700   -6.8000   16.6240 H   0  0  0  0  0  0  0  0  0  0  0  0
    7.6520   -4.5380   18.0500 H   0  0  0  0  0  0  0  0  0  0  0  0
    5.0400   -2.5830   15.0050 H   0  0  0  0  0  0  0  0  0  0  0  0
    9.5160   -4.8840   16.1790 H   0  0  0  0  0  0  0  0  0  0  0  0
    8.8420   -6.5000   16.0310 H   0  0  0  0  0  0  0  0  0  0  0  0
    2.8870   -1.8430   16.0050 H   0  0  0  0  0  0  0  0  0  0  0  0
    3.4730   -2.1920   17.6030 H   0  0  0  0  0  0  0  0  0  0  0  0
    2.6380   -3.7980   14.3370 H   0  0  0  0  0  0  0  0  0  0  0  0
    3.3870   -4.3700   18.5360 H   0  0  0  0  0  0  0  0  0  0  0  0
   10.8520   -7.5030   18.7300 H   0  0  0  0  0  0  0  0  0  0  0  0
   10.2000   -7.8330   17.1240 H   0  0  0  0  0  0  0  0  0  0  0  0
    1.8700   -6.1760   14.1610 H   0  0  0  0  0  0  0  0  0  0  0  0
    2.6280   -6.7330   18.3610 H   0  0  0  0  0  0  0  0  0  0  0  0
    1.9080   -7.6440   16.1750 H   0  0  0  0  0  0  0  0  0  0  0  0
    5.1870    1.0630   15.6580 H   0  0  0  0  0  0  0  0  0  0  0  0
    4.1060   -0.1560   14.9790 H   0  0  0  0  0  0  0  0  0  0  0  0
    5.6070   -3.5900   17.7330 H   0  0  0  0  0  0  0  0  0  0  0  0
    6.0140    0.0810   17.9010 H   0  0  0  0  0  0  0  0  0  0  0  0
    4.7540   -7.5210   20.7880 H   0  0  0  0  0  0  0  0  0  0  0  0
    7.1550    2.8430   12.2580 H   0  0  0  0  0  0  0  0  0  0  0  0
    3.1360    1.8540   11.8710 H   0  0  0  0  0  0  0  0  0  0  0  0
    3.0090   -9.3380   20.7770 H   0  0  0  0  0  0  0  0  0  0  0  0
    1.7750  -11.0580   19.5150 H   0  0  0  0  0  0  0  0  0  0  0  0
    1.3630  -12.2810   17.3820 H   0  0  0  0  0  0  0  0  0  0  0  0
    2.6940  -11.7200   15.3460 H   0  0  0  0  0  0  0  0  0  0  0  0
    9.0200    1.5770   13.1420 H   0  0  0  0  0  0  0  0  0  0  0  0
    4.4250   -9.9220   15.4530 H   0  0  0  0  0  0  0  0  0  0  0  0
    6.7260   -1.0190   16.2470 H   0  0  0  0  0  0  0  0  0  0  0  0
   -0.2210    1.6190   11.2950 H   0  0  0  0  0  0  0  0  0  0  0  0
    0.8630    2.5140   12.3570 H   0  0  0  0  0  0  0  0  0  0  0  0
    1.2620    2.3150   10.6330 H   0  0  0  0  0  0  0  0  0  0  0  0
    4.8260    1.7990   13.3560 H   0  0  0  0  0  0  0  0  0  0  0  0
   -0.1510   -0.1900   12.8340 H   0  0  0  0  0  0  0  0  0  0  0  0
    1.3790   -1.0090   13.2210 H   0  0  0  0  0  0  0  0  0  0  0  0
    1.0530    0.6000   13.8690 H   0  0  0  0  0  0  0  0  0  0  0  0
    6.0600    0.2970   10.9830 H   0  0  0  0  0  0  0  0  0  0  0  0
    5.3480    1.8790   10.9290 H   0  0  0  0  0  0  0  0  0  0  0  0
    1.9570    0.1870    9.7900 H   0  0  0  0  0  0  0  0  0  0  0  0
    2.0460   -1.2250   10.8450 H   0  0  0  0  0  0  0  0  0  0  0  0
    0.4520   -0.5530   10.3940 H   0  0  0  0  0  0  0  0  0  0  0  0
    8.9410    2.6120   10.6680 H   0  0  0  0  0  0  0  0  0  0  0  0
    7.4580    2.4370    9.7720 H   0  0  0  0  0  0  0  0  0  0  0  0
    9.2140    0.7540    9.1140 H   0  0  0  0  0  0  0  0  0  0  0  0
    7.7440   -0.0220    9.6150 H   0  0  0  0  0  0  0  0  0  0  0  0
   10.2990    0.3170   11.2880 H   0  0  0  0  0  0  0  0  0  0  0  0
    9.6580   -1.1930   10.6770 H   0  0  0  0  0  0  0  0  0  0  0  0
    7.6250   -0.9690   12.0990 H   0  0  0  0  0  0  0  0  0  0  0  0
    9.0590   -0.9480   13.1120 H   0  0  0  0  0  0  0  0  0  0  0  0
    6.9910    1.8720   14.5400 H   0  0  0  0  0  0  0  0  0  0  0  0
    7.8230    0.3860   14.9820 H   0  0  0  0  0  0  0  0  0  0  0  0
    6.1730   -0.8310   13.5500 H   0  0  0  0  0  0  0  0  0  0  0  0
  1  2  1  0  0  0  0
  1  4  1  0  0  0  0
  1 50  1  0  0  0  0
  2  6  1  0  0  0  0
  2 19  1  0  0  0  0
  2 51  1  1  0  0  0
  3  7  1  0  0  0  0
  3 23  1  0  0  0  0
  3 37  1  0  0  0  0
  3 52  1  6  0  0  0
  4  5  2  0  0  0  0
  4 22  1  0  0  0  0
  6  8  1  0  0  0  0
  6 53  1  0  0  0  0
  6 54  1  0  0  0  0
  7  9  1  0  0  0  0
  7 55  1  0  0  0  0
  7 56  1  0  0  0  0
  8 13  1  0  0  0  0
  8 14  2  0  0  0  0
  9 11  2  0  0  0  0
  9 12  1  0  0  0  0
 10 27  1  0  0  0  0
 10 38  1  0  0  0  0
 10 41  1  0  0  0  0
 10 43  1  0  0  0  0
 11 15  1  0  0  0  0
 11 57  1  0  0  0  0
 12 16  2  0  0  0  0
 12 58  1  0  0  0  0
 13 59  1  0  0  0  0
 13 60  1  0  0  0  0
 15 17  2  0  0  0  0
 15 61  1  0  0  0  0
 16 17  1  0  0  0  0
 16 62  1  0  0  0  0
 17 63  1  0  0  0  0
 18 37  1  0  0  0  0
 18 39  1  0  0  0  0
 18 64  1  0  0  0  0
 18 65  1  0  0  0  0
 19 21  2  0  0  0  0
 19 23  1  0  0  0  0
 20 22  2  0  0  0  0
 20 36  1  0  0  0  0
 22 25  1  0  0  0  0
 23 66  1  0  0  0  0
 24 37  1  0  0  0  0
 24 67  1  0  0  0  0
 25 29  2  0  0  0  0
 25 68  1  0  0  0  0
 26 34  1  0  0  0  0
 26 42  1  0  0  0  0
 26 44  1  0  0  0  0
 26 69  1  1  0  0  0
 27 49  1  0  0  0  0
 27 70  1  0  0  0  0
 28 49  2  0  0  0  0
 29 30  1  0  0  0  0
 29 71  1  0  0  0  0
 30 31  2  0  0  0  0
 30 36  1  0  0  0  0
 31 32  1  0  0  0  0
 31 72  1  0  0  0  0
 32 33  2  0  0  0  0
 32 73  1  0  0  0  0
 33 35  1  0  0  0  0
 33 74  1  0  0  0  0
 34 47  1  0  0  0  0
 34 48  1  0  0  0  0
 34 75  1  1  0  0  0
 35 36  2  0  0  0  0
 35 76  1  0  0  0  0
 37 77  1  6  0  0  0
 38 78  1  0  0  0  0
 38 79  1  0  0  0  0
 38 80  1  0  0  0  0
 39 40  1  0  0  0  0
 39 48  1  0  0  0  0
 39100  1  6  0  0  0
 40 42  1  0  0  0  0
 40 49  1  0  0  0  0
 40 81  1  1  0  0  0
 41 82  1  0  0  0  0
 41 83  1  0  0  0  0
 41 84  1  0  0  0  0
 42 85  1  0  0  0  0
 42 86  1  0  0  0  0
 43 87  1  0  0  0  0
 43 88  1  0  0  0  0
 43 89  1  0  0  0  0
 44 45  1  0  0  0  0
 44 90  1  0  0  0  0
 44 91  1  0  0  0  0
 45 46  1  0  0  0  0
 45 92  1  0  0  0  0
 45 93  1  0  0  0  0
 46 47  1  0  0  0  0
 46 94  1  0  0  0  0
 46 95  1  0  0  0  0
 47 96  1  0  0  0  0
 47 97  1  0  0  0  0
 48 98  1  0  0  0  0
 48 99  1  0  0  0  0
M  CHG  1  39   1
M  END
>  <charge>
1

>  <KI_NM>
0.04

>  <number_of_rotatable_bonds>
16

>  <lm5_entropy_jk>
41.473308753000644

>  <ligand_crystal_conformation>
A

$$$$
