3qtq.pdb
 OpenBabel11252210453D

 30 31  0  0  1  0  0  0  0  0999 V2000
   65.8000  154.5490  -50.6640 N   0  0  0  0  0  0  0  0  0  0  0  0
   67.3520  153.5540  -52.2020 N   0  0  0  0  0  0  0  0  0  0  0  0
   70.7410  150.2110  -47.5580 N   0  0  0  0  0  0  0  0  0  0  0  0
   64.5760  155.2990  -48.7630 N   0  0  0  0  0  0  0  0  0  0  0  0
   66.8830  153.6720  -50.9390 C   0  0  0  0  0  0  0  0  0  0  0  0
   67.4130  152.9320  -49.8490 C   0  0  0  0  0  0  0  0  0  0  0  0
   68.4730  151.9910  -49.9680 C   0  0  0  0  0  0  0  0  0  0  0  0
   68.8780  151.1430  -48.8050 C   0  0  0  0  0  0  0  0  0  0  0  0
   70.2510  151.0780  -48.4760 C   0  0  0  0  0  0  0  0  0  0  0  0
   69.8570  149.3950  -46.9160 C   0  0  0  0  0  0  0  0  0  0  0  0
   68.4760  149.4380  -47.1570 C   0  0  0  0  0  0  0  0  0  0  0  0
   67.9790  150.3230  -48.1190 C   0  0  0  0  0  0  0  0  0  0  0  0
   65.4950  154.4650  -49.3480 C   0  0  0  0  0  0  0  0  0  0  0  0
   64.1010  155.0880  -47.3750 C   0  0  0  0  0  0  0  0  0  0  0  0
   63.0650  154.0030  -47.2370 C   0  0  0  0  0  0  0  0  0  0  0  0
   62.8460  153.4050  -46.0690 C   0  0  0  0  0  0  0  0  0  0  0  0
   69.0870  151.8310  -51.0270 O   0  0  0  0  0  0  0  0  0  0  0  0
   66.5210  153.2600  -48.4060 S   0  0  0  0  0  0  0  0  0  0  0  0
   66.9820  154.1410  -52.9700 H   0  0  0  0  0  0  0  0  0  0  0  0
   68.1740  152.9550  -52.3890 H   0  0  0  0  0  0  0  0  0  0  0  0
   70.9710  151.7470  -48.9720 H   0  0  0  0  0  0  0  0  0  0  0  0
   70.2650  148.6850  -46.1810 H   0  0  0  0  0  0  0  0  0  0  0  0
   67.8000  148.7810  -46.6020 H   0  0  0  0  0  0  0  0  0  0  0  0
   66.9040  150.3490  -48.3200 H   0  0  0  0  0  0  0  0  0  0  0  0
   63.8250  155.6860  -49.3810 H   0  0  0  0  0  0  0  0  0  0  0  0
   63.6260  156.0630  -47.0540 H   0  0  0  0  0  0  0  0  0  0  0  0
   64.9750  154.8780  -46.7140 H   0  0  0  0  0  0  0  0  0  0  0  0
   62.0870  152.6440  -45.9310 H   0  0  0  0  0  0  0  0  0  0  0  0
   63.4130  153.6400  -45.1660 H   0  0  0  0  0  0  0  0  0  0  0  0
   62.4990  153.7730  -48.1400 H   0  0  0  0  0  0  0  0  0  0  0  0
  1  5  1  0  0  0  0
  1 13  2  0  0  0  0
  2  5  1  0  0  0  0
  2 19  1  0  0  0  0
  2 20  1  0  0  0  0
  3  9  2  0  0  0  0
  3 10  1  0  0  0  0
  4 13  1  0  0  0  0
  4 14  1  0  0  0  0
  4 25  1  0  0  0  0
  5  6  2  0  0  0  0
  6 18  1  0  0  0  0
  7  6  1  0  0  0  0
  7  8  1  0  0  0  0
  7 17  2  0  0  0  0
  8  9  1  0  0  0  0
  8 12  2  0  0  0  0
  9 21  1  0  0  0  0
 10 11  2  0  0  0  0
 10 22  1  0  0  0  0
 11 12  1  0  0  0  0
 11 23  1  0  0  0  0
 12 24  1  0  0  0  0
 13 18  1  0  0  0  0
 14 15  1  0  0  0  0
 14 26  1  0  0  0  0
 14 27  1  0  0  0  0
 15 16  2  0  0  0  0
 15 30  1  0  0  0  0
 16 28  1  0  0  0  0
 16 29  1  0  0  0  0
M  END
>  <lm5_entropy_jk>
31.50116356131297

>  <number_of_rotatable_bonds>
5

>  <IC50_NM>
3100

>  <charge>
0

$$$$
