model35
 OpenBabel11252210453D

 75 76  0  0  1  0  0  0  0  0999 V2000
    8.4630   18.3380    8.9450 N   0  0  0  0  0  0  0  0  0  0  0  0
   11.3650   17.8110    7.5570 C   0  0  1  0  0  0  0  0  0  0  0  0
   12.3240   18.5770    6.8010 O   0  0  0  0  0  0  0  0  0  0  0  0
    9.9940   18.2570    7.0050 C   0  0  0  0  0  0  0  0  0  0  0  0
    4.8770   17.4880    9.4400 N   0  0  0  0  0  0  0  0  0  0  0  0
   11.5310   14.7190    4.0620 O   0  0  0  0  0  0  0  0  0  0  0  0
    8.8410   17.6390    7.7770 C   0  0  0  0  0  0  0  0  0  0  0  0
   11.7070   15.9840    5.9130 N   0  0  0  0  0  0  0  0  0  0  0  0
    5.9010   19.0980    8.1720 O   0  0  0  0  0  0  0  0  0  0  0  0
    7.3090   17.9060    9.7610 C   0  0  1  0  0  0  0  0  0  0  0  0
    8.3210   16.5810    7.4710 O   0  0  0  0  0  0  0  0  0  0  0  0
    7.3640   18.5560   11.1770 C   0  0  0  0  0  0  0  0  0  0  0  0
   10.2040   14.1520    5.8500 O   0  0  0  0  0  0  0  0  0  0  0  0
    6.5570   17.7310   12.1890 C   0  0  0  0  0  0  0  0  0  0  0  0
    6.9260   20.0210   11.1720 C   0  0  0  0  0  0  0  0  0  0  0  0
    5.9900   18.2200    9.0180 C   0  0  0  0  0  0  0  0  0  0  0  0
    3.5630   17.5960    8.7710 C   0  0  0  0  0  0  0  0  0  0  0  0
    3.3130   16.5160    7.6930 C   0  0  0  0  0  0  0  0  0  0  0  0
    4.2870   16.4650    6.6450 O   0  0  0  0  0  0  0  0  0  0  0  0
    4.3900   17.6670    5.8260 C   0  0  0  0  0  0  0  0  0  0  0  0
    5.0490   17.1840    4.5300 C   0  0  0  0  0  0  0  0  0  0  0  0
    6.2680   17.9470    4.3610 O   0  0  0  0  0  0  0  0  0  0  0  0
    7.4830   17.1980    4.1900 C   0  0  0  0  0  0  0  0  0  0  0  0
    7.5400   16.5050    2.8160 C   0  0  0  0  0  0  0  0  0  0  0  0
    8.4360   15.3780    2.9150 O   0  0  0  0  0  0  0  0  0  0  0  0
    9.8220   15.6610    2.6040 C   0  0  0  0  0  0  0  0  0  0  0  0
   10.5540   14.3880    3.0420 C   0  0  0  0  0  0  0  0  0  0  0  0
   11.6770   16.2850    7.3590 C   0  0  1  0  0  0  0  0  0  0  0  0
   11.0460   14.8800    5.3730 C   0  0  0  0  0  0  0  0  0  0  0  0
   13.0110   15.9280    8.0690 C   0  0  0  0  0  0  0  0  0  0  0  0
   13.4120   14.4890    7.8830 C   0  0  0  0  0  0  0  0  0  0  0  0
   12.7180   13.4640    8.5470 C   0  0  0  0  0  0  0  0  0  0  0  0
   13.0430   12.1250    8.3260 C   0  0  0  0  0  0  0  0  0  0  0  0
   14.0910   11.7880    7.4620 C   0  0  0  0  0  0  0  0  0  0  0  0
   14.8200   12.8030    6.8370 C   0  0  0  0  0  0  0  0  0  0  0  0
   14.4850   14.1440    7.0450 C   0  0  0  0  0  0  0  0  0  0  0  0
   15.0760   14.9220    6.5630 H   0  0  0  0  0  0  0  0  0  0  0  0
    8.7520   19.3260    9.0650 H   0  0  0  0  0  0  0  0  0  0  0  0
   11.4550   18.0710    8.6380 H   0  0  0  0  0  0  0  0  0  0  0  0
   12.9250   19.0860    7.4680 H   0  0  0  0  0  0  0  0  0  0  0  0
    9.9190   17.9660    5.9280 H   0  0  0  0  0  0  0  0  0  0  0  0
    5.0120   16.6090    9.9720 H   0  0  0  0  0  0  0  0  0  0  0  0
   12.5470   16.3460    5.4190 H   0  0  0  0  0  0  0  0  0  0  0  0
    7.3920   16.8010    9.9260 H   0  0  0  0  0  0  0  0  0  0  0  0
    8.4310   18.4930   11.5060 H   0  0  0  0  0  0  0  0  0  0  0  0
    6.8720   16.6660   12.1690 H   0  0  0  0  0  0  0  0  0  0  0  0
    7.5250   20.6020   10.4410 H   0  0  0  0  0  0  0  0  0  0  0  0
    3.4460   18.6210    8.3330 H   0  0  0  0  0  0  0  0  0  0  0  0
    2.2930   16.6720    7.2630 H   0  0  0  0  0  0  0  0  0  0  0  0
    5.0550   18.3820    6.3740 H   0  0  0  0  0  0  0  0  0  0  0  0
    4.4350   17.4550    3.6400 H   0  0  0  0  0  0  0  0  0  0  0  0
    7.6010   16.4490    5.0040 H   0  0  0  0  0  0  0  0  0  0  0  0
    7.8520   17.1920    2.0050 H   0  0  0  0  0  0  0  0  0  0  0  0
   10.1830   16.5450    3.1750 H   0  0  0  0  0  0  0  0  0  0  0  0
   11.2060   13.9780    2.2360 H   0  0  0  0  0  0  0  0  0  0  0  0
   10.8540   15.7050    7.8510 H   0  0  0  0  0  0  0  0  0  0  0  0
   12.8890   16.1510    9.1600 H   0  0  0  0  0  0  0  0  0  0  0  0
   11.9450   13.7210    9.2660 H   0  0  0  0  0  0  0  0  0  0  0  0
   12.4870   11.3410    8.8440 H   0  0  0  0  0  0  0  0  0  0  0  0
   14.3530   10.7420    7.2930 H   0  0  0  0  0  0  0  0  0  0  0  0
   15.6640   12.5520    6.1870 H   0  0  0  0  0  0  0  0  0  0  0  0
   13.8150   16.6040    7.6890 H   0  0  0  0  0  0  0  0  0  0  0  0
    9.9520   19.3730    7.0550 H   0  0  0  0  0  0  0  0  0  0  0  0
    5.4640   17.7890   11.9870 H   0  0  0  0  0  0  0  0  0  0  0  0
    7.0610   20.4610   12.1850 H   0  0  0  0  0  0  0  0  0  0  0  0
    2.7780   17.4680    9.5740 H   0  0  0  0  0  0  0  0  0  0  0  0
    3.4040   15.4940    8.1380 H   0  0  0  0  0  0  0  0  0  0  0  0
    3.3770   18.0860    5.6470 H   0  0  0  0  0  0  0  0  0  0  0  0
    5.2460   16.0910    4.5790 H   0  0  0  0  0  0  0  0  0  0  0  0
    8.2420   18.0090    4.2570 H   0  0  0  0  0  0  0  0  0  0  0  0
    6.5780   16.0080    2.5580 H   0  0  0  0  0  0  0  0  0  0  0  0
    9.9020   15.8340    1.5080 H   0  0  0  0  0  0  0  0  0  0  0  0
    9.8340   13.6330    3.4350 H   0  0  0  0  0  0  0  0  0  0  0  0
    5.8490   20.1100   10.9080 H   0  0  0  0  0  0  0  0  0  0  0  0
    6.7300   18.1300   13.2150 H   0  0  0  0  0  0  0  0  0  0  0  0
  1 38  1  0  0  0  0
  1 10  1  0  0  0  0
  2 39  1  1  0  0  0
  2 28  1  0  0  0  0
  3 40  1  0  0  0  0
  3  2  1  0  0  0  0
  4  2  1  0  0  0  0
  4  7  1  0  0  0  0
  5 42  1  0  0  0  0
  6 29  1  0  0  0  0
  7  1  1  0  0  0  0
  8 28  1  0  0  0  0
  9 16  2  0  0  0  0
 10 44  1  1  0  0  0
 10 12  1  0  0  0  0
 11  7  2  0  0  0  0
 12 15  1  0  0  0  0
 12 45  1  0  0  0  0
 12 14  1  0  0  0  0
 14 75  1  0  0  0  0
 15 65  1  0  0  0  0
 16  5  1  0  0  0  0
 16 10  1  0  0  0  0
 17 66  1  0  0  0  0
 17  5  1  0  0  0  0
 18 67  1  0  0  0  0
 18 17  1  0  0  0  0
 19 18  1  0  0  0  0
 20 50  1  0  0  0  0
 20 19  1  0  0  0  0
 21 69  1  0  0  0  0
 21 20  1  0  0  0  0
 22 23  1  0  0  0  0
 22 21  1  0  0  0  0
 23 70  1  0  0  0  0
 23 52  1  0  0  0  0
 24 71  1  0  0  0  0
 24 23  1  0  0  0  0
 25 24  1  0  0  0  0
 26 25  1  0  0  0  0
 26 27  1  0  0  0  0
 27 73  1  0  0  0  0
 27  6  1  0  0  0  0
 28 56  1  1  0  0  0
 28 30  1  0  0  0  0
 29 13  2  0  0  0  0
 29  8  1  0  0  0  0
 30 57  1  0  0  0  0
 31 30  1  0  0  0  0
 31 32  2  0  0  0  0
 32 58  1  0  0  0  0
 33 32  1  0  0  0  0
 33 59  1  0  0  0  0
 34 33  2  0  0  0  0
 35 36  2  0  0  0  0
 35 34  1  0  0  0  0
 36 31  1  0  0  0  0
 37 36  1  0  0  0  0
 41  4  1  0  0  0  0
 43  8  1  0  0  0  0
 46 14  1  0  0  0  0
 47 15  1  0  0  0  0
 48 17  1  0  0  0  0
 49 18  1  0  0  0  0
 51 21  1  0  0  0  0
 53 24  1  0  0  0  0
 54 26  1  0  0  0  0
 55 27  1  0  0  0  0
 60 34  1  0  0  0  0
 61 35  1  0  0  0  0
 62 30  1  0  0  0  0
 63  4  1  0  0  0  0
 64 14  1  0  0  0  0
 68 20  1  0  0  0  0
 72 26  1  0  0  0  0
 74 15  1  0  0  0  0
M  END
>  <IC50_NM>
850

>  <number_of_rotatable_bonds>
3

>  <charge>
0

>  <lm5_entropy_jk>
31.13362949117809

$$$$
