4XZH
 OpenBabel11252210453D

 32 33  0  0  0  0  0  0  0  0999 V2000
   14.7640   -4.3060   10.2930 Cl  0  0  0  0  0  0  0  0  0  0  0  0
   17.5530   -6.2930   13.3270 C   0  0  0  0  0  0  0  0  0  0  0  0
   16.8500   -7.6670   17.5760 N   0  0  0  0  0  0  0  0  0  0  0  0
   18.4920   -7.0500   14.2810 C   0  0  0  0  0  0  0  0  0  0  0  0
   18.0200   -5.9000   16.7150 O   0  0  0  0  0  0  0  0  0  0  0  0
   17.7900   -7.7500   15.4110 N   0  0  0  0  0  0  0  0  0  0  0  0
   17.4730   -9.0810   15.2650 C   0  0  0  0  0  0  0  0  0  0  0  0
   18.0530   -5.2540   12.5180 C   0  0  0  0  0  0  0  0  0  0  0  0
   17.2420   -4.6150   11.5460 C   0  0  0  0  0  0  0  0  0  0  0  0
   14.8290   -5.8550   17.4800 O   0  5  0  0  0  0  0  0  0  0  0  0
   15.8820   -4.9970   11.4450 C   0  0  0  0  0  0  0  0  0  0  0  0
   15.3600   -5.9060   18.5710 C   0  0  0  0  0  0  0  0  0  0  0  0
   16.4890   -6.8790   18.8040 C   0  0  0  0  0  0  0  0  0  0  0  0
   14.9060   -5.3970   19.5800 O   0  0  0  0  0  0  0  0  0  0  0  0
   16.2010   -6.6510   13.2060 C   0  0  0  0  0  0  0  0  0  0  0  0
   17.8700   -3.5910   10.6460 N   0  3  0  0  0  0  0  0  0  0  0  0
   17.1760   -2.8000   10.0150 O   0  5  0  0  0  0  0  0  0  0  0  0
   19.0830   -3.6800   10.4810 O   0  0  0  0  0  0  0  0  0  0  0  0
   15.3750   -6.0010   12.2770 C   0  0  0  0  0  0  0  0  0  0  0  0
   17.5620   -7.0250   16.5670 C   0  0  0  0  0  0  0  0  0  0  0  0
   17.7740   -9.7380   14.2890 O   0  0  0  0  0  0  0  0  0  0  0  0
   16.3990   -8.9610   17.4590 C   0  0  0  0  0  0  0  0  0  0  0  0
   16.7380   -9.6660   16.3500 C   0  0  0  0  0  0  0  0  0  0  0  0
   16.4530  -10.7000   16.2060 H   0  0  0  0  0  0  0  0  0  0  0  0
   19.2360   -6.3500   14.6890 H   0  0  0  0  0  0  0  0  0  0  0  0
   19.0910   -4.9560   12.6310 H   0  0  0  0  0  0  0  0  0  0  0  0
   17.3390   -6.2720   19.1230 H   0  0  0  0  0  0  0  0  0  0  0  0
   15.7870   -7.4340   13.8340 H   0  0  0  0  0  0  0  0  0  0  0  0
   14.3260   -6.2770   12.1910 H   0  0  0  0  0  0  0  0  0  0  0  0
   15.8130   -9.3250   18.3000 H   0  0  0  0  0  0  0  0  0  0  0  0
   16.1950   -7.5090   19.6430 H   0  0  0  0  0  0  0  0  0  0  0  0
   19.0690   -7.7920   13.7120 H   0  0  0  0  0  0  0  0  0  0  0  0
  1 11  1  0  0  0  0
  2  4  1  0  0  0  0
  2  8  2  0  0  0  0
  2 15  1  0  0  0  0
  3 13  1  0  0  0  0
  3 20  1  0  0  0  0
  3 22  1  0  0  0  0
  4  6  1  0  0  0  0
  4 25  1  0  0  0  0
  4 32  1  0  0  0  0
  5 20  2  0  0  0  0
  6  7  1  0  0  0  0
  6 20  1  0  0  0  0
  7 21  2  0  0  0  0
  7 23  1  0  0  0  0
  8  9  1  0  0  0  0
  8 26  1  0  0  0  0
  9 11  2  0  0  0  0
  9 16  1  0  0  0  0
 10 12  1  0  0  0  0
 11 19  1  0  0  0  0
 12 13  1  0  0  0  0
 12 14  2  0  0  0  0
 13 27  1  0  0  0  0
 13 31  1  0  0  0  0
 15 19  2  0  0  0  0
 15 28  1  0  0  0  0
 16 17  1  0  0  0  0
 16 18  2  0  0  0  0
 19 29  1  0  0  0  0
 22 23  2  0  0  0  0
 22 30  1  0  0  0  0
 23 24  1  0  0  0  0
M  CHG  3  10  -1  16   1  17  -1
M  END
>  <deltaG_kcalmol>
-9.66

>  <charge>
-1

>  <number_of_rotatable_bonds>
5

>  <lm5_entropy_jk>
25.077845360290652

$$$$
