4IVC
 OpenBabel11252210453D

 45 48  0  0  1  0  0  0  0  0999 V2000
  -10.4720   29.1100    2.0530 C   0  0  0  0  0  0  0  0  0  0  0  0
  -11.4640   29.5520    0.9860 C   0  0  1  0  0  0  0  0  0  0  0  0
  -10.8360   29.9370   -0.2510 O   0  0  0  0  0  0  0  0  0  0  0  0
  -12.4930   28.4830    0.6810 C   0  0  0  0  0  0  0  0  0  0  0  0
  -13.7200   28.7410   -0.0210 N   0  0  0  0  0  0  0  0  0  0  0  0
  -14.4490   27.5440    0.0110 C   0  0  0  0  0  0  0  0  0  0  0  0
  -13.6000   26.5910    0.6850 C   0  0  0  0  0  0  0  0  0  0  0  0
  -12.4120   27.2060    1.0860 N   0  0  0  0  0  0  0  0  0  0  0  0
  -13.9840   25.2260    0.8710 C   0  0  0  0  0  0  0  0  0  0  0  0
  -15.1470   24.7610    0.4250 N   0  0  0  0  0  0  0  0  0  0  0  0
  -15.9730   25.6810   -0.2090 C   0  0  0  0  0  0  0  0  0  0  0  0
  -15.7090   27.0830   -0.4430 C   0  0  0  0  0  0  0  0  0  0  0  0
  -16.8600   27.6020   -1.1130 C   0  0  0  0  0  0  0  0  0  0  0  0
  -17.7620   26.5580   -1.2880 C   0  0  0  0  0  0  0  0  0  0  0  0
  -17.2260   25.3750   -0.7500 N   0  0  0  0  0  0  0  0  0  0  0  0
  -14.0550   30.0650   -0.6140 C   0  0  1  0  0  0  0  0  0  0  0  0
  -14.4000   30.0050   -2.1150 C   0  0  0  0  0  0  0  0  0  0  0  0
  -14.6620   31.4270   -2.6490 C   0  0  0  0  0  0  0  0  0  0  0  0
  -15.7440   32.1630   -1.8260 C   0  0  1  0  0  0  0  0  0  0  0  0
  -15.3710   32.1750   -0.3290 C   0  0  0  0  0  0  0  0  0  0  0  0
  -15.1810   30.7440    0.1930 C   0  0  0  0  0  0  0  0  0  0  0  0
  -15.9090   33.6120   -2.3550 C   0  0  0  0  0  0  0  0  0  0  0  0
  -16.9660   34.3440   -1.6790 C   0  0  0  0  0  0  0  0  0  0  0  0
  -17.7920   34.9570   -1.1480 N   0  0  0  0  0  0  0  0  0  0  0  0
  -11.9830   30.4960    1.3030 H   0  0  0  0  0  0  0  0  0  0  0  0
  -13.3100   24.5350    1.4000 H   0  0  0  0  0  0  0  0  0  0  0  0
  -17.0280   28.6100   -1.4450 H   0  0  0  0  0  0  0  0  0  0  0  0
  -18.7240   26.5750   -1.7780 H   0  0  0  0  0  0  0  0  0  0  0  0
  -13.1260   30.7020   -0.5250 H   0  0  0  0  0  0  0  0  0  0  0  0
  -13.5510   29.5630   -2.6860 H   0  0  0  0  0  0  0  0  0  0  0  0
  -15.3080   29.3800   -2.2900 H   0  0  0  0  0  0  0  0  0  0  0  0
  -13.7180   32.0200   -2.6340 H   0  0  0  0  0  0  0  0  0  0  0  0
  -14.9980   31.3500   -3.7100 H   0  0  0  0  0  0  0  0  0  0  0  0
  -16.7200   31.6290   -1.9620 H   0  0  0  0  0  0  0  0  0  0  0  0
  -14.4270   32.7550   -0.2030 H   0  0  0  0  0  0  0  0  0  0  0  0
  -16.1770   32.6830    0.2500 H   0  0  0  0  0  0  0  0  0  0  0  0
  -14.9130   30.7670    1.2730 H   0  0  0  0  0  0  0  0  0  0  0  0
  -16.1270   30.1660    0.0670 H   0  0  0  0  0  0  0  0  0  0  0  0
  -14.9450   34.1730   -2.2300 H   0  0  0  0  0  0  0  0  0  0  0  0
  -16.1420   33.5690   -3.4550 H   0  0  0  0  0  0  0  0  0  0  0  0
  -17.7200   24.4790   -0.6770 H   0  0  0  0  0  0  0  0  0  0  0  0
   -9.8900   29.5380   -0.3130 H   0  0  0  0  0  0  0  0  0  0  0  0
   -9.7810   29.9490    2.3040 H   0  0  0  0  0  0  0  0  0  0  0  0
   -9.8780   28.2260    1.7290 H   0  0  0  0  0  0  0  0  0  0  0  0
  -11.0120   28.8310    2.9920 H   0  0  0  0  0  0  0  0  0  0  0  0
  1  2  1  0  0  0  0
  2  4  1  0  0  0  0
  2  3  1  0  0  0  0
  2 25  1  1  0  0  0
  4  5  1  0  0  0  0
  4  8  2  0  0  0  0
  6  7  1  0  0  0  0
  6  5  1  0  0  0  0
  7  8  1  0  0  0  0
  9  7  2  0  0  0  0
  9 10  1  0  0  0  0
 11 12  1  0  0  0  0
 11 10  2  0  0  0  0
 11 15  1  0  0  0  0
 12 13  1  0  0  0  0
 12  6  2  0  0  0  0
 13 14  2  0  0  0  0
 14 15  1  0  0  0  0
 16 17  1  0  0  0  0
 16 21  1  0  0  0  0
 16  5  1  0  0  0  0
 16 29  1  1  0  0  0
 17 18  1  0  0  0  0
 18 19  1  0  0  0  0
 19 20  1  0  0  0  0
 19 22  1  0  0  0  0
 19 34  1  6  0  0  0
 20 21  1  0  0  0  0
 22 23  1  0  0  0  0
 23 24  3  0  0  0  0
 26  9  1  0  0  0  0
 27 13  1  0  0  0  0
 28 14  1  0  0  0  0
 30 17  1  0  0  0  0
 31 17  1  0  0  0  0
 32 18  1  0  0  0  0
 33 18  1  0  0  0  0
 35 20  1  0  0  0  0
 36 20  1  0  0  0  0
 37 21  1  0  0  0  0
 38 21  1  0  0  0  0
 39 22  1  0  0  0  0
 40 22  1  0  0  0  0
 41 15  1  0  0  0  0
 42  3  1  0  0  0  0
 43  1  1  0  0  0  0
 44  1  1  0  0  0  0
 45  1  1  0  0  0  0
M  END
>  <charge>
0

>  <pKi>
10

>  <number_of_rotatable_bonds>
3

>  <lm5_entropy_jk>
27.567193669021417

$$$$
