3R8U
 OpenBabel11252210453D

 37 39  0  0  1  0  0  0  0  0999 V2000
   64.0280  155.2890  -48.6540 N   0  0  0  0  0  0  0  0  0  0  0  0
   65.6050  154.5450  -50.1920 N   0  0  0  0  0  0  0  0  0  0  0  0
   67.2700  153.5440  -51.4370 N   0  0  0  0  0  0  0  0  0  0  0  0
   62.3100  153.8000  -45.7440 C   0  0  0  0  0  0  0  0  0  0  0  0
   62.5990  154.1670  -46.9960 C   0  0  0  0  0  0  0  0  0  0  0  0
   63.4230  155.3930  -47.3040 C   0  0  0  0  0  0  0  0  0  0  0  0
   65.0570  154.4600  -48.9980 C   0  0  0  0  0  0  0  0  0  0  0  0
   66.9370  152.9410  -49.1320 C   0  0  0  0  0  0  0  0  0  0  0  0
   66.6540  153.6640  -50.2580 C   0  0  0  0  0  0  0  0  0  0  0  0
   68.0380  151.9580  -49.0460 C   0  0  0  0  0  0  0  0  0  0  0  0
   68.1890  151.0570  -47.8210 C   0  0  0  0  0  0  0  0  0  0  0  0
   67.8790  151.4670  -46.5020 C   0  0  0  0  0  0  0  0  0  0  0  0
   68.0350  150.5990  -45.4040 C   0  0  0  0  0  0  0  0  0  0  0  0
   68.5510  149.3080  -45.6060 C   0  0  0  0  0  0  0  0  0  0  0  0
   68.8960  148.8980  -46.9000 C   0  0  0  0  0  0  0  0  0  0  0  0
   68.7150  149.7580  -47.9980 C   0  0  0  0  0  0  0  0  0  0  0  0
   67.6780  151.0110  -44.1060 C   0  0  0  0  0  0  0  0  0  0  0  0
   67.8410  150.1370  -43.0150 C   0  0  0  0  0  0  0  0  0  0  0  0
   68.3610  148.8490  -43.2190 C   0  0  0  0  0  0  0  0  0  0  0  0
   68.7190  148.4370  -44.5150 C   0  0  0  0  0  0  0  0  0  0  0  0
   68.8280  151.8420  -49.9700 O   0  0  0  0  0  0  0  0  0  0  0  0
   65.6760  153.2040  -47.9550 S   0  0  0  0  0  0  0  0  0  0  0  0
   62.7790  156.2860  -47.2440 H   0  0  0  0  0  0  0  0  0  0  0  0
   64.2030  155.5190  -46.5400 H   0  0  0  0  0  0  0  0  0  0  0  0
   63.5480  155.7300  -49.4390 H   0  0  0  0  0  0  0  0  0  0  0  0
   67.0530  154.1780  -52.1980 H   0  0  0  0  0  0  0  0  0  0  0  0
   68.0930  152.9570  -51.4300 H   0  0  0  0  0  0  0  0  0  0  0  0
   67.5370  152.4710  -46.3120 H   0  0  0  0  0  0  0  0  0  0  0  0
   69.2980  147.9020  -47.0480 H   0  0  0  0  0  0  0  0  0  0  0  0
   68.9860  149.4160  -48.9970 H   0  0  0  0  0  0  0  0  0  0  0  0
   67.2530  151.9970  -43.9410 H   0  0  0  0  0  0  0  0  0  0  0  0
   67.5530  150.4510  -42.0110 H   0  0  0  0  0  0  0  0  0  0  0  0
   68.4780  148.1690  -42.3740 H   0  0  0  0  0  0  0  0  0  0  0  0
   69.1120  147.4350  -44.6770 H   0  0  0  0  0  0  0  0  0  0  0  0
   61.7350  152.9020  -45.5270 H   0  0  0  0  0  0  0  0  0  0  0  0
   62.6500  154.3730  -44.8810 H   0  0  0  0  0  0  0  0  0  0  0  0
   62.2570  153.5810  -47.8540 H   0  0  0  0  0  0  0  0  0  0  0  0
  1  6  1  0  0  0  0
  1  7  1  0  0  0  0
  1 25  1  0  0  0  0
  2  7  2  0  0  0  0
  2  9  1  0  0  0  0
  3  9  1  0  0  0  0
  3 26  1  0  0  0  0
  3 27  1  0  0  0  0
  4  5  2  0  0  0  0
  4 35  1  0  0  0  0
  4 36  1  0  0  0  0
  5  6  1  0  0  0  0
  5 37  1  0  0  0  0
  6 23  1  0  0  0  0
  6 24  1  0  0  0  0
  7 22  1  0  0  0  0
  8  9  2  0  0  0  0
  8 22  1  0  0  0  0
 10  8  1  0  0  0  0
 10 11  1  0  0  0  0
 10 21  2  0  0  0  0
 11 12  2  0  0  0  0
 11 16  1  0  0  0  0
 12 13  1  0  0  0  0
 12 28  1  0  0  0  0
 13 14  2  0  0  0  0
 13 17  1  0  0  0  0
 14 15  1  0  0  0  0
 14 20  1  0  0  0  0
 15 16  2  0  0  0  0
 15 29  1  0  0  0  0
 16 30  1  0  0  0  0
 17 18  2  0  0  0  0
 17 31  1  0  0  0  0
 18 19  1  0  0  0  0
 18 32  1  0  0  0  0
 19 20  2  0  0  0  0
 19 33  1  0  0  0  0
 20 34  1  0  0  0  0
M  END
>  <lm5_entropy_jk>
31.97375871552738

>  <number_of_rotatable_bonds>
5

>  <IC50_NM>
5000

>  <charge>
0

$$$$
