model24
 OpenBabel11252210453D

 76 77  0  0  1  0  0  0  0  0999 V2000
   13.4520   14.7820    8.1590 C   0  0  0  0  0  0  0  0  0  0  0  0
   11.1600   17.9430    7.5810 C   0  0  1  0  0  0  0  0  0  0  0  0
   14.7260   14.5480    7.7000 N   0  0  0  0  0  0  0  0  0  0  0  0
    8.3390   18.3730    8.9710 N   0  0  0  0  0  0  0  0  0  0  0  0
   12.0440   18.7420    6.8060 O   0  0  0  0  0  0  0  0  0  0  0  0
   13.6960   12.2250    8.3000 S   0  0  0  0  0  0  0  0  0  0  0  0
   12.7600   13.6710    8.5490 C   0  0  0  0  0  0  0  0  0  0  0  0
    9.7590   18.2200    7.0130 C   0  0  0  0  0  0  0  0  0  0  0  0
    4.7970   17.4910    9.5950 N   0  0  0  0  0  0  0  0  0  0  0  0
    5.7000   19.3040    8.5520 O   0  0  0  0  0  0  0  0  0  0  0  0
    8.6830   17.6450    7.8610 C   0  0  0  0  0  0  0  0  0  0  0  0
   11.7800   16.0050    6.1000 N   0  0  0  0  0  0  0  0  0  0  0  0
    8.1740   16.5770    7.6020 O   0  0  0  0  0  0  0  0  0  0  0  0
   14.9850   13.2470    7.7010 C   0  0  0  0  0  0  0  0  0  0  0  0
    7.2150   17.9480    9.8680 C   0  0  1  0  0  0  0  0  0  0  0  0
   10.3160   14.2570    6.0420 O   0  0  0  0  0  0  0  0  0  0  0  0
    7.4250   18.4460   11.3230 C   0  0  0  0  0  0  0  0  0  0  0  0
    6.4850   17.7610   12.3150 C   0  0  0  0  0  0  0  0  0  0  0  0
    7.1990   19.9580   11.4550 C   0  0  0  0  0  0  0  0  0  0  0  0
    5.8460   18.3310    9.2710 C   0  0  0  0  0  0  0  0  0  0  0  0
    3.5100   17.4540    8.8740 C   0  0  0  0  0  0  0  0  0  0  0  0
    3.4820   16.2560    7.8910 C   0  0  0  0  0  0  0  0  0  0  0  0
    4.4750   16.4290    6.7100 C   0  0  0  0  0  0  0  0  0  0  0  0
    3.9310   17.3870    5.6190 C   0  0  0  0  0  0  0  0  0  0  0  0
    5.0620   18.0140    4.7650 C   0  0  0  0  0  0  0  0  0  0  0  0
    6.0400   16.9600    4.2020 C   0  0  0  0  0  0  0  0  0  0  0  0
    6.9850   17.5730    3.1480 C   0  0  0  0  0  0  0  0  0  0  0  0
    7.9660   16.5160    2.6000 C   0  0  0  0  0  0  0  0  0  0  0  0
    9.1750   16.3160    3.5290 C   0  0  0  0  0  0  0  0  0  0  0  0
    9.9890   15.0700    3.1270 C   0  0  0  0  0  0  0  0  0  0  0  0
   11.2940   14.9840    3.9720 C   0  0  0  0  0  0  0  0  0  0  0  0
   11.5850   16.4260    7.4920 C   0  0  1  0  0  0  0  0  0  0  0  0
   11.0770   15.0150    5.4690 C   0  0  0  0  0  0  0  0  0  0  0  0
   12.8920   16.1630    8.2890 C   0  0  0  0  0  0  0  0  0  0  0  0
    8.7170   19.3150    9.0460 H   0  0  0  0  0  0  0  0  0  0  0  0
   11.1950   18.2560    8.6400 H   0  0  0  0  0  0  0  0  0  0  0  0
   12.7780   19.0420    7.4070 H   0  0  0  0  0  0  0  0  0  0  0  0
    9.6510   17.7720    6.0240 H   0  0  0  0  0  0  0  0  0  0  0  0
    5.0500   16.6780   10.1520 H   0  0  0  0  0  0  0  0  0  0  0  0
   12.3970   16.5590    5.5240 H   0  0  0  0  0  0  0  0  0  0  0  0
    7.1880   16.8550    9.8960 H   0  0  0  0  0  0  0  0  0  0  0  0
    8.4590   18.1910   11.6020 H   0  0  0  0  0  0  0  0  0  0  0  0
   11.7590   13.6100    8.9500 H   0  0  0  0  0  0  0  0  0  0  0  0
   12.7230   16.3770    9.3490 H   0  0  0  0  0  0  0  0  0  0  0  0
   13.6520   16.8800    7.9640 H   0  0  0  0  0  0  0  0  0  0  0  0
   15.9120   12.7930    7.3640 H   0  0  0  0  0  0  0  0  0  0  0  0
    6.7450   18.0250   13.3480 H   0  0  0  0  0  0  0  0  0  0  0  0
    7.7580   20.5100   10.6910 H   0  0  0  0  0  0  0  0  0  0  0  0
    3.3560   18.4000    8.3290 H   0  0  0  0  0  0  0  0  0  0  0  0
    2.4630   16.1090    7.5030 H   0  0  0  0  0  0  0  0  0  0  0  0
    4.6890   15.4540    6.2550 H   0  0  0  0  0  0  0  0  0  0  0  0
    3.3550   18.2010    6.0770 H   0  0  0  0  0  0  0  0  0  0  0  0
    5.6190   18.7360    5.3790 H   0  0  0  0  0  0  0  0  0  0  0  0
    5.4780   16.1310    3.7540 H   0  0  0  0  0  0  0  0  0  0  0  0
    7.5320   18.4300    3.5650 H   0  0  0  0  0  0  0  0  0  0  0  0
    8.3150   16.8150    1.6020 H   0  0  0  0  0  0  0  0  0  0  0  0
    8.8270   16.2010    4.5650 H   0  0  0  0  0  0  0  0  0  0  0  0
   10.2280   15.1010    2.0530 H   0  0  0  0  0  0  0  0  0  0  0  0
   11.9720   15.7980    3.7060 H   0  0  0  0  0  0  0  0  0  0  0  0
   10.7740   15.8180    7.9250 H   0  0  0  0  0  0  0  0  0  0  0  0
    9.5640   19.2880    6.9180 H   0  0  0  0  0  0  0  0  0  0  0  0
    6.5370   16.6710   12.2160 H   0  0  0  0  0  0  0  0  0  0  0  0
    7.4710   20.3300   12.4490 H   0  0  0  0  0  0  0  0  0  0  0  0
    2.6870   17.3660    9.6020 H   0  0  0  0  0  0  0  0  0  0  0  0
    3.7240   15.3350    8.4420 H   0  0  0  0  0  0  0  0  0  0  0  0
    5.4500   16.7880    7.0730 H   0  0  0  0  0  0  0  0  0  0  0  0
    3.2270   16.8480    4.9700 H   0  0  0  0  0  0  0  0  0  0  0  0
    4.6190   18.5910    3.9410 H   0  0  0  0  0  0  0  0  0  0  0  0
    6.6300   16.5280    5.0220 H   0  0  0  0  0  0  0  0  0  0  0  0
    6.3840   17.9650    2.3180 H   0  0  0  0  0  0  0  0  0  0  0  0
    7.4380   15.5630    2.4690 H   0  0  0  0  0  0  0  0  0  0  0  0
    9.8130   17.2110    3.5050 H   0  0  0  0  0  0  0  0  0  0  0  0
    9.3840   14.1660    3.2880 H   0  0  0  0  0  0  0  0  0  0  0  0
   11.8310   14.0540    3.7680 H   0  0  0  0  0  0  0  0  0  0  0  0
    6.1420   20.2110   11.2980 H   0  0  0  0  0  0  0  0  0  0  0  0
    5.4390   18.0610   12.1640 H   0  0  0  0  0  0  0  0  0  0  0  0
  1 34  1  0  0  0  0
  1  7  2  0  0  0  0
  2 36  1  1  0  0  0
  2 32  1  0  0  0  0
  3 14  2  0  0  0  0
  3  1  1  0  0  0  0
  4 35  1  0  0  0  0
  4 15  1  0  0  0  0
  5 37  1  0  0  0  0
  5  2  1  0  0  0  0
  6  7  1  0  0  0  0
  7 43  1  0  0  0  0
  8  2  1  0  0  0  0
  8 11  1  0  0  0  0
  9 39  1  0  0  0  0
 10 20  2  0  0  0  0
 11  4  1  0  0  0  0
 12 32  1  0  0  0  0
 13 11  2  0  0  0  0
 14  6  1  0  0  0  0
 15 41  1  1  0  0  0
 15 17  1  0  0  0  0
 17 42  1  0  0  0  0
 17 18  1  0  0  0  0
 18 62  1  0  0  0  0
 18 47  1  0  0  0  0
 19 17  1  0  0  0  0
 19 63  1  0  0  0  0
 20  9  1  0  0  0  0
 20 15  1  0  0  0  0
 21  9  1  0  0  0  0
 21 64  1  0  0  0  0
 22 65  1  0  0  0  0
 22 21  1  0  0  0  0
 23 66  1  0  0  0  0
 23 22  1  0  0  0  0
 24 52  1  0  0  0  0
 24 23  1  0  0  0  0
 25 53  1  0  0  0  0
 25 24  1  0  0  0  0
 26 25  1  0  0  0  0
 26 69  1  0  0  0  0
 27 55  1  0  0  0  0
 27 26  1  0  0  0  0
 28 27  1  0  0  0  0
 28 29  1  0  0  0  0
 29 57  1  0  0  0  0
 30 29  1  0  0  0  0
 30 73  1  0  0  0  0
 30 31  1  0  0  0  0
 31 33  1  0  0  0  0
 32 60  1  1  0  0  0
 32 34  1  0  0  0  0
 33 12  1  0  0  0  0
 33 16  2  0  0  0  0
 34 44  1  0  0  0  0
 38  8  1  0  0  0  0
 40 12  1  0  0  0  0
 45 34  1  0  0  0  0
 46 14  1  0  0  0  0
 48 19  1  0  0  0  0
 49 21  1  0  0  0  0
 50 22  1  0  0  0  0
 51 23  1  0  0  0  0
 54 26  1  0  0  0  0
 56 28  1  0  0  0  0
 58 30  1  0  0  0  0
 59 31  1  0  0  0  0
 61  8  1  0  0  0  0
 67 24  1  0  0  0  0
 68 25  1  0  0  0  0
 70 27  1  0  0  0  0
 71 28  1  0  0  0  0
 72 29  1  0  0  0  0
 74 31  1  0  0  0  0
 75 19  1  0  0  0  0
 76 18  1  0  0  0  0
M  END
>  <IC50_NM>
600

>  <number_of_rotatable_bonds>
3

>  <charge>
0

>  <lm5_entropy_jk>
30.51387600249522

$$$$
