4LBS
 OpenBabel11252210453D

 35 36  0  0  0  0  0  0  0  0999 V2000
   14.3650  -12.1380   19.3540 Cl  0  0  0  0  0  0  0  0  0  0  0  0
   17.6450   -6.0900   13.1970 C   0  0  0  0  0  0  0  0  0  0  0  0
   18.3820   -5.0370   12.6550 C   0  0  0  0  0  0  0  0  0  0  0  0
   16.3400   -6.2610   12.7120 C   0  0  0  0  0  0  0  0  0  0  0  0
   17.8950   -4.2410   11.6100 C   0  0  0  0  0  0  0  0  0  0  0  0
   15.8220   -5.4590   11.6850 C   0  0  0  0  0  0  0  0  0  0  0  0
   16.6010   -4.4470   11.1200 C   0  0  0  0  0  0  0  0  0  0  0  0
   18.3400   -7.0070   14.2330 C   0  0  0  0  0  0  0  0  0  0  0  0
   17.4520   -7.8380   15.0670 N   0  0  0  0  0  0  0  0  0  0  0  0
   17.4570   -9.2100   15.0990 C   0  0  0  0  0  0  0  0  0  0  0  0
   16.6220   -9.8780   16.1400 C   0  0  0  0  0  0  0  0  0  0  0  0
   16.1660   -9.2030   17.2840 C   0  0  0  0  0  0  0  0  0  0  0  0
   16.3220  -11.2440   15.9690 C   0  0  0  0  0  0  0  0  0  0  0  0
   15.3710   -9.8810   18.2120 C   0  0  0  0  0  0  0  0  0  0  0  0
   15.5870  -11.9230   16.9460 C   0  0  0  0  0  0  0  0  0  0  0  0
   15.1200  -11.2440   18.0660 C   0  0  0  0  0  0  0  0  0  0  0  0
   18.1090   -9.8690   14.3100 O   0  0  0  0  0  0  0  0  0  0  0  0
   16.6230   -7.9210   17.5330 O   0  0  0  0  0  0  0  0  0  0  0  0
   16.3850   -7.0770   18.7050 C   0  0  0  0  0  0  0  0  0  0  0  0
   15.3540   -5.9760   18.5050 C   0  0  0  0  0  0  0  0  0  0  0  0
   14.9100   -5.4770   19.5280 O   0  0  0  0  0  0  0  0  0  0  0  0
   14.9430   -5.7350   17.3880 O   0  5  0  0  0  0  0  0  0  0  0  0
   15.8710   -3.2980    9.7700 Br  0  0  0  0  0  0  0  0  0  0  0  0
   15.5520   -7.1890   13.2420 F   0  0  0  0  0  0  0  0  0  0  0  0
   19.5910   -4.7960   13.1670 F   0  0  0  0  0  0  0  0  0  0  0  0
   17.3010   -6.5460   18.9700 H   0  0  0  0  0  0  0  0  0  0  0  0
   18.4960   -3.4210   11.2320 H   0  0  0  0  0  0  0  0  0  0  0  0
   14.7950   -5.6110   11.3600 H   0  0  0  0  0  0  0  0  0  0  0  0
   18.9620   -6.3910   14.9000 H   0  0  0  0  0  0  0  0  0  0  0  0
   16.9000   -7.4130   15.8090 H   0  0  0  0  0  0  0  0  0  0  0  0
   16.6770  -11.7850   15.0890 H   0  0  0  0  0  0  0  0  0  0  0  0
   15.0150   -9.3780   19.0960 H   0  0  0  0  0  0  0  0  0  0  0  0
   15.3930  -12.9890   16.8420 H   0  0  0  0  0  0  0  0  0  0  0  0
   16.0920   -7.6410   19.5890 H   0  0  0  0  0  0  0  0  0  0  0  0
   19.0450   -7.6720   13.7120 H   0  0  0  0  0  0  0  0  0  0  0  0
  1 16  1  0  0  0  0
  2  3  2  0  0  0  0
  2  4  1  0  0  0  0
  2  8  1  0  0  0  0
  3  5  1  0  0  0  0
  3 25  1  0  0  0  0
  4  6  2  0  0  0  0
  4 24  1  0  0  0  0
  5  7  2  0  0  0  0
  5 27  1  0  0  0  0
  6  7  1  0  0  0  0
  6 28  1  0  0  0  0
  7 23  1  0  0  0  0
  8  9  1  0  0  0  0
  8 29  1  0  0  0  0
  8 35  1  0  0  0  0
  9 10  1  0  0  0  0
  9 30  1  0  0  0  0
 10 11  1  0  0  0  0
 10 17  2  0  0  0  0
 11 12  2  0  0  0  0
 11 13  1  0  0  0  0
 12 14  1  0  0  0  0
 12 18  1  0  0  0  0
 13 15  2  0  0  0  0
 13 31  1  0  0  0  0
 14 16  2  0  0  0  0
 14 32  1  0  0  0  0
 15 16  1  0  0  0  0
 15 33  1  0  0  0  0
 18 19  1  0  0  0  0
 19 20  1  0  0  0  0
 19 26  1  0  0  0  0
 19 34  1  0  0  0  0
 20 21  2  0  0  0  0
 20 22  1  0  0  0  0
M  CHG  1  22  -1
M  END
>  <deltaG_kcalmol>
-9.64

>  <charge>
-1

>  <lm5_entropy_jk>
25.63780735381752

>  <number_of_rotatable_bonds>
7

$$$$
