1ZOH
 OpenBabel11252210453D

 24 26  0  0  1  0  0  0  0  0999 V2000
   22.7680    8.1010   17.8080 C   0  0  0  0  0  0  0  0  0  0  0  0
   21.8350    8.7530   18.6640 C   0  0  0  0  0  0  0  0  0  0  0  0
   21.6610    8.3050   19.9980 C   0  0  0  0  0  0  0  0  0  0  0  0
   23.4960    6.9730   18.2590 C   0  0  0  0  0  0  0  0  0  0  0  0
   23.7910    5.4030   20.1280 N   0  0  0  0  0  0  0  0  0  0  0  0
   23.2530    6.5110   19.5560 C   0  0  0  0  0  0  0  0  0  0  0  0
   22.3990    7.1790   20.3930 C   0  0  0  0  0  0  0  0  0  0  0  0
   22.4900    6.5840   21.6160 N   0  0  0  0  0  0  0  0  0  0  0  0
   23.3090    5.5110   21.3760 C   0  0  0  0  0  0  0  0  0  0  0  0
   23.0650    4.4890   22.2640 N   0  0  0  0  0  0  0  0  0  0  0  0
   23.1830    3.0490   21.9370 C   0  0  0  0  0  0  0  0  0  0  0  0
   21.5750    6.3460   22.7300 C   0  0  0  0  0  0  0  0  0  0  0  0
   21.9600    4.8900   23.1840 C   0  0  0  0  0  0  0  0  0  0  0  0
   24.8100    6.1040   17.1560 Br  0  0  0  0  0  0  0  0  0  0  0  0
   23.0410    8.7280   16.0160 Br  0  0  0  0  0  0  0  0  0  0  0  0
   20.8160   10.2530   18.0100 Br  0  0  0  0  0  0  0  0  0  0  0  0
   20.4550    9.1860   21.2110 Br  0  0  0  0  0  0  0  0  0  0  0  0
   22.2950    4.8790   24.2330 H   0  0  0  0  0  0  0  0  0  0  0  0
   20.5310    6.4190   22.4030 H   0  0  0  0  0  0  0  0  0  0  0  0
   21.7480    7.0850   23.5270 H   0  0  0  0  0  0  0  0  0  0  0  0
   21.0960    4.2130   23.0940 H   0  0  0  0  0  0  0  0  0  0  0  0
   24.1380    2.8400   21.4350 H   0  0  0  0  0  0  0  0  0  0  0  0
   22.3810    2.7370   21.2530 H   0  0  0  0  0  0  0  0  0  0  0  0
   23.1280    2.4230   22.8380 H   0  0  0  0  0  0  0  0  0  0  0  0
  1  2  2  0  0  0  0
  1  4  1  0  0  0  0
  1 15  1  0  0  0  0
  2  3  1  0  0  0  0
  2 16  1  0  0  0  0
  3  7  2  0  0  0  0
  3 17  1  0  0  0  0
  4  6  2  0  0  0  0
  4 14  1  0  0  0  0
  5  6  1  0  0  0  0
  5  9  2  0  0  0  0
  6  7  1  0  0  0  0
  7  8  1  0  0  0  0
  8  9  1  0  0  0  0
  8 12  1  0  0  0  0
  9 10  1  0  0  0  0
 10 11  1  0  0  0  0
 10 13  1  0  0  0  0
 11 22  1  0  0  0  0
 11 23  1  0  0  0  0
 11 24  1  0  0  0  0
 12 13  1  0  0  0  0
 12 19  1  0  0  0  0
 12 20  1  0  0  0  0
 13 18  1  0  0  0  0
 13 21  1  0  0  0  0
M  END
>  <charge>
0

>  <Ki_NM>
100

>  <number_of_rotatable_bonds>
0

>  <lm5_entropy_jk>
16.12636398139741

$$$$
