1ZOH
 OpenBabel11252210453D

 24 26  0  0  1  0  0  0  0  0999 V2000
   22.6940    8.1290   17.8280 C   0  0  0  0  0  0  0  0  0  0  0  0
   21.7550    8.7150   18.7240 C   0  0  0  0  0  0  0  0  0  0  0  0
   21.6330    8.2250   20.0490 C   0  0  0  0  0  0  0  0  0  0  0  0
   23.4700    7.0140   18.2320 C   0  0  0  0  0  0  0  0  0  0  0  0
   23.9240    5.4520   20.0810 N   0  0  0  0  0  0  0  0  0  0  0  0
   23.2990    6.5260   19.5340 C   0  0  0  0  0  0  0  0  0  0  0  0
   22.4360    7.1320   20.4040 C   0  0  0  0  0  0  0  0  0  0  0  0
   22.5760    6.5180   21.6150 N   0  0  0  0  0  0  0  0  0  0  0  0
   23.4690    5.5100   21.3440 C   0  0  0  0  0  0  0  0  0  0  0  0
   23.2880    4.4450   22.1980 N   0  0  0  0  0  0  0  0  0  0  0  0
   23.4840    3.0260   21.8200 C   0  0  0  0  0  0  0  0  0  0  0  0
   21.6480    6.1570   22.6870 C   0  0  0  0  0  0  0  0  0  0  0  0
   22.1580    4.7380   23.1250 C   0  0  0  0  0  0  0  0  0  0  0  0
   24.7580    6.2000   17.0630 Br  0  0  0  0  0  0  0  0  0  0  0  0
   22.9430    8.8630   16.0660 Br  0  0  0  0  0  0  0  0  0  0  0  0
   20.6670   10.1950   18.1430 Br  0  0  0  0  0  0  0  0  0  0  0  0
   20.4220    9.0140   21.3130 Br  0  0  0  0  0  0  0  0  0  0  0  0
   22.4990    4.7420   24.1720 H   0  0  0  0  0  0  0  0  0  0  0  0
   20.6180    6.1200   22.3080 H   0  0  0  0  0  0  0  0  0  0  0  0
   21.7020    6.8890   23.5080 H   0  0  0  0  0  0  0  0  0  0  0  0
   21.3560    3.9890   23.0310 H   0  0  0  0  0  0  0  0  0  0  0  0
   24.4160    2.8950   21.2540 H   0  0  0  0  0  0  0  0  0  0  0  0
   22.6620    2.6780   21.1780 H   0  0  0  0  0  0  0  0  0  0  0  0
   23.5250    2.3760   22.7050 H   0  0  0  0  0  0  0  0  0  0  0  0
  1  2  2  0  0  0  0
  1  4  1  0  0  0  0
  1 15  1  0  0  0  0
  2  3  1  0  0  0  0
  2 16  1  0  0  0  0
  3  7  2  0  0  0  0
  3 17  1  0  0  0  0
  4  6  2  0  0  0  0
  4 14  1  0  0  0  0
  5  6  1  0  0  0  0
  5  9  2  0  0  0  0
  6  7  1  0  0  0  0
  7  8  1  0  0  0  0
  8  9  1  0  0  0  0
  8 12  1  0  0  0  0
  9 10  1  0  0  0  0
 10 11  1  0  0  0  0
 10 13  1  0  0  0  0
 11 22  1  0  0  0  0
 11 23  1  0  0  0  0
 11 24  1  0  0  0  0
 12 13  1  0  0  0  0
 12 19  1  0  0  0  0
 12 20  1  0  0  0  0
 13 18  1  0  0  0  0
 13 21  1  0  0  0  0
M  END
>  <charge>
0

>  <Ki_NM>
100

>  <number_of_rotatable_bonds>
0

>  <lm5_entropy_jk>
16.12636398139741

$$$$
