3rk9.pdb
 OpenBabel11252210453D

 32 33  0  0  1  0  0  0  0  0999 V2000
   64.4400  155.0760  -48.4080 N   0  0  0  0  0  0  0  0  0  0  0  0
   65.7230  154.5340  -50.3570 N   0  0  0  0  0  0  0  0  0  0  0  0
   67.2260  153.5900  -51.9850 N   0  0  0  0  0  0  0  0  0  0  0  0
   70.6180  149.9620  -47.5190 N   0  0  0  0  0  0  0  0  0  0  0  0
   62.9700  155.8250  -46.5950 C   0  0  0  0  0  0  0  0  0  0  0  0
   63.8660  154.6770  -47.0780 C   0  0  0  0  0  0  0  0  0  0  0  0
   63.0690  153.3700  -47.1820 C   0  0  0  0  0  0  0  0  0  0  0  0
   65.4000  154.3430  -49.0540 C   0  0  0  0  0  0  0  0  0  0  0  0
   66.7980  153.6730  -50.7010 C   0  0  0  0  0  0  0  0  0  0  0  0
   67.3460  152.8760  -49.6610 C   0  0  0  0  0  0  0  0  0  0  0  0
   68.4060  151.9410  -49.8280 C   0  0  0  0  0  0  0  0  0  0  0  0
   68.7890  151.0220  -48.7110 C   0  0  0  0  0  0  0  0  0  0  0  0
   67.8630  150.2060  -48.0540 C   0  0  0  0  0  0  0  0  0  0  0  0
   68.3300  149.2620  -47.1330 C   0  0  0  0  0  0  0  0  0  0  0  0
   69.7090  149.1520  -46.9050 C   0  0  0  0  0  0  0  0  0  0  0  0
   70.1590  150.8890  -48.3940 C   0  0  0  0  0  0  0  0  0  0  0  0
   69.0320  151.8430  -50.8860 O   0  0  0  0  0  0  0  0  0  0  0  0
   66.4550  153.0930  -48.1980 S   0  0  0  0  0  0  0  0  0  0  0  0
   63.5500  156.7620  -46.4650 H   0  0  0  0  0  0  0  0  0  0  0  0
   62.5210  155.5540  -45.6110 H   0  0  0  0  0  0  0  0  0  0  0  0
   62.1440  156.0090  -47.3190 H   0  0  0  0  0  0  0  0  0  0  0  0
   64.7180  154.5430  -46.3650 H   0  0  0  0  0  0  0  0  0  0  0  0
   62.3830  153.4020  -48.0560 H   0  0  0  0  0  0  0  0  0  0  0  0
   62.4630  153.2250  -46.2580 H   0  0  0  0  0  0  0  0  0  0  0  0
   63.7570  152.5030  -47.2740 H   0  0  0  0  0  0  0  0  0  0  0  0
   63.7330  155.5550  -49.0170 H   0  0  0  0  0  0  0  0  0  0  0  0
   66.8700  154.2230  -52.7230 H   0  0  0  0  0  0  0  0  0  0  0  0
   68.0440  153.0020  -52.2130 H   0  0  0  0  0  0  0  0  0  0  0  0
   66.7880  150.2770  -48.2450 H   0  0  0  0  0  0  0  0  0  0  0  0
   67.6300  148.6120  -46.6000 H   0  0  0  0  0  0  0  0  0  0  0  0
   70.0960  148.3910  -46.2100 H   0  0  0  0  0  0  0  0  0  0  0  0
   70.9070  151.5480  -48.8630 H   0  0  0  0  0  0  0  0  0  0  0  0
  1  6  1  0  0  0  0
  1  8  1  0  0  0  0
  1 26  1  0  0  0  0
  2  8  2  0  0  0  0
  2  9  1  0  0  0  0
  3  9  1  0  0  0  0
  3 27  1  0  0  0  0
  3 28  1  0  0  0  0
  4 15  2  0  0  0  0
  4 16  1  0  0  0  0
  5  6  1  0  0  0  0
  5 19  1  0  0  0  0
  5 20  1  0  0  0  0
  5 21  1  0  0  0  0
  6  7  1  0  0  0  0
  6 22  1  0  0  0  0
  7 23  1  0  0  0  0
  7 24  1  0  0  0  0
  7 25  1  0  0  0  0
  8 18  1  0  0  0  0
  9 10  2  0  0  0  0
 10 18  1  0  0  0  0
 11 10  1  0  0  0  0
 11 12  1  0  0  0  0
 11 17  2  0  0  0  0
 12 13  1  0  0  0  0
 12 16  2  0  0  0  0
 13 14  2  0  0  0  0
 13 29  1  0  0  0  0
 14 15  1  0  0  0  0
 14 30  1  0  0  0  0
 15 31  1  0  0  0  0
 16 32  1  0  0  0  0
M  END
>  <lm5_entropy_jk>
34.96174716553827

>  <number_of_rotatable_bonds>
4

>  <IC50_NM>
520

>  <charge>
0

$$$$
