2OXX
 OpenBabel11252210453D

 16 17  0  0  1  0  0  0  0  0999 V2000
   21.6050    8.5250   19.4740 C   0  0  0  0  0  0  0  0  0  0  0  0
   21.2510    8.2840   20.8240 C   0  0  0  0  0  0  0  0  0  0  0  0
   21.7880    7.2050   21.5270 C   0  0  0  0  0  0  0  0  0  0  0  0
   22.5480    7.7210   18.8290 C   0  0  0  0  0  0  0  0  0  0  0  0
   23.3570    5.2060   21.2940 N   0  0  0  0  0  0  0  0  0  0  0  0
   23.0680    6.6220   19.5170 C   0  0  0  0  0  0  0  0  0  0  0  0
   22.6780    6.3600   20.8670 C   0  0  0  0  0  0  0  0  0  0  0  0
   25.1900    3.3830   20.2860 S   0  0  0  0  0  0  0  0  0  0  0  0
   24.1700    4.7170   20.2340 C   0  0  0  0  0  0  0  0  0  0  0  0
   23.9810    5.6160   19.1470 N   0  0  0  0  0  0  0  0  0  0  0  0
   23.2180    7.9900   17.0890 Br  0  0  0  0  0  0  0  0  0  0  0  0
   20.7690    9.9240   18.5040 Br  0  0  0  0  0  0  0  0  0  0  0  0
   20.0270    9.4090   21.7250 Br  0  0  0  0  0  0  0  0  0  0  0  0
   21.4050    6.7340   23.3110 Br  0  0  0  0  0  0  0  0  0  0  0  0
   23.1800    4.7360   22.1870 H   0  0  0  0  0  0  0  0  0  0  0  0
   24.4110    5.5400   18.2220 H   0  0  0  0  0  0  0  0  0  0  0  0
  1  2  2  0  0  0  0
  1  4  1  0  0  0  0
  1 12  1  0  0  0  0
  2  3  1  0  0  0  0
  2 13  1  0  0  0  0
  3  7  2  0  0  0  0
  3 14  1  0  0  0  0
  4  6  2  0  0  0  0
  4 11  1  0  0  0  0
  5  7  1  0  0  0  0
  5  9  1  0  0  0  0
  5 15  1  0  0  0  0
  6  7  1  0  0  0  0
  6 10  1  0  0  0  0
  8  9  2  0  0  0  0
  9 10  1  0  0  0  0
 10 16  1  0  0  0  0
M  END
>  <charge>
0

>  <Ki_NM>
200

>  <number_of_rotatable_bonds>
0

>  <lm5_entropy_jk>
7.2278

$$$$
