3S1H
 OpenBabel11252210453D

 43 45  0  0  1  0  0  0  0  0999 V2000
   65.9860  154.3410  -50.4860 N   0  0  0  0  0  0  0  0  0  0  0  0
   67.5600  153.4760  -52.0830 N   0  0  0  0  0  0  0  0  0  0  0  0
   64.5870  154.8230  -48.6300 N   0  0  0  0  0  0  0  0  0  0  0  0
   62.0830  152.8180  -42.7000 N   0  0  0  0  0  0  0  0  0  0  0  0
   69.0170  149.4260  -46.2100 C   0  0  0  0  0  0  0  0  0  0  0  0
   70.1690  149.9290  -46.8580 C   0  0  0  0  0  0  0  0  0  0  0  0
   70.0200  150.6370  -48.0420 C   0  0  0  0  0  0  0  0  0  0  0  0
   67.6300  150.2140  -48.0110 C   0  0  0  0  0  0  0  0  0  0  0  0
   67.7530  149.5290  -46.7980 C   0  0  0  0  0  0  0  0  0  0  0  0
   68.1740  148.4150  -44.1830 C   0  0  0  0  0  0  0  0  0  0  0  0
   68.7430  150.8170  -48.6090 C   0  0  0  0  0  0  0  0  0  0  0  0
   68.5940  151.6580  -49.8370 C   0  0  0  0  0  0  0  0  0  0  0  0
   67.6030  152.6980  -49.7680 C   0  0  0  0  0  0  0  0  0  0  0  0
   67.0950  153.4990  -50.8080 C   0  0  0  0  0  0  0  0  0  0  0  0
   65.6450  154.1320  -49.1960 C   0  0  0  0  0  0  0  0  0  0  0  0
   63.8890  154.5180  -47.4250 C   0  0  0  0  0  0  0  0  0  0  0  0
   64.0580  153.3480  -46.6690 C   0  0  0  0  0  0  0  0  0  0  0  0
   63.3010  153.1660  -45.5080 C   0  0  0  0  0  0  0  0  0  0  0  0
   62.3500  154.1110  -45.1100 C   0  0  0  0  0  0  0  0  0  0  0  0
   62.1900  155.2830  -45.8640 C   0  0  0  0  0  0  0  0  0  0  0  0
   62.9480  155.4900  -47.0090 C   0  0  0  0  0  0  0  0  0  0  0  0
   60.1320  153.0660  -44.4200 O   0  0  0  0  0  0  0  0  0  0  0  0
   60.8990  155.0070  -43.0760 O   0  0  0  0  0  0  0  0  0  0  0  0
   69.2830  151.4690  -50.8330 O   0  0  0  0  0  0  0  0  0  0  0  0
   69.2970  148.8780  -44.9800 O   0  0  0  0  0  0  0  0  0  0  0  0
   66.7350  152.9740  -48.2990 S   0  0  0  0  0  0  0  0  0  0  0  0
   61.2560  153.7900  -43.8210 S   0  0  0  0  0  0  0  0  0  0  0  0
   71.1400  149.7670  -46.4000 H   0  0  0  0  0  0  0  0  0  0  0  0
   67.1620  154.0950  -52.8140 H   0  0  0  0  0  0  0  0  0  0  0  0
   68.3730  152.8950  -52.3150 H   0  0  0  0  0  0  0  0  0  0  0  0
   70.8940  151.0730  -48.5340 H   0  0  0  0  0  0  0  0  0  0  0  0
   64.0220  155.4300  -49.2820 H   0  0  0  0  0  0  0  0  0  0  0  0
   66.6410  150.2540  -48.4740 H   0  0  0  0  0  0  0  0  0  0  0  0
   62.1880  151.7970  -42.9630 H   0  0  0  0  0  0  0  0  0  0  0  0
   61.9200  152.9260  -41.6900 H   0  0  0  0  0  0  0  0  0  0  0  0
   66.8610  149.1020  -46.3380 H   0  0  0  0  0  0  0  0  0  0  0  0
   68.6730  148.0900  -43.2420 H   0  0  0  0  0  0  0  0  0  0  0  0
   67.6800  147.5650  -44.7000 H   0  0  0  0  0  0  0  0  0  0  0  0
   67.4680  149.2540  -43.9930 H   0  0  0  0  0  0  0  0  0  0  0  0
   64.7400  152.5480  -46.9590 H   0  0  0  0  0  0  0  0  0  0  0  0
   63.4800  152.2560  -44.9240 H   0  0  0  0  0  0  0  0  0  0  0  0
   61.4630  156.0550  -45.5770 H   0  0  0  0  0  0  0  0  0  0  0  0
   62.7940  156.3960  -47.5980 H   0  0  0  0  0  0  0  0  0  0  0  0
  1 14  1  0  0  0  0
  1 15  2  0  0  0  0
  2 14  1  0  0  0  0
  2 29  1  0  0  0  0
  2 30  1  0  0  0  0
  3 15  1  0  0  0  0
  3 16  1  0  0  0  0
  3 32  1  0  0  0  0
  4 27  1  0  0  0  0
  4 34  1  0  0  0  0
  4 35  1  0  0  0  0
  5  6  2  0  0  0  0
  5  9  1  0  0  0  0
  5 25  1  0  0  0  0
  6  7  1  0  0  0  0
  6 28  1  0  0  0  0
  7 11  2  0  0  0  0
  7 31  1  0  0  0  0
  8  9  2  0  0  0  0
  8 11  1  0  0  0  0
  8 33  1  0  0  0  0
  9 36  1  0  0  0  0
 10 25  1  0  0  0  0
 10 37  1  0  0  0  0
 10 38  1  0  0  0  0
 10 39  1  0  0  0  0
 12 11  1  0  0  0  0
 12 13  1  0  0  0  0
 12 24  2  0  0  0  0
 13 14  2  0  0  0  0
 13 26  1  0  0  0  0
 15 26  1  0  0  0  0
 16 17  2  0  0  0  0
 16 21  1  0  0  0  0
 17 18  1  0  0  0  0
 17 40  1  0  0  0  0
 18 19  2  0  0  0  0
 18 41  1  0  0  0  0
 19 20  1  0  0  0  0
 19 27  1  0  0  0  0
 20 21  2  0  0  0  0
 20 42  1  0  0  0  0
 21 43  1  0  0  0  0
 22 27  2  0  0  0  0
 23 27  2  0  0  0  0
M  END
>  <lm5_entropy_jk>
33.50945403317048

>  <number_of_rotatable_bonds>
6

>  <IC50_NM>
17000

>  <charge>
0

$$$$
