3f17.pdb
 OpenBabel11252210453D

 35 36  0  0  0  0  0  0  0  0999 V2000
    3.8290   23.4690    5.4270 C   0  0  0  0  0  0  0  0  0  0  0  0
    8.0380   27.0430    1.6830 N   0  0  0  0  0  0  0  0  0  0  0  0
    7.0110   24.7190    0.0870 O   0  0  0  0  0  0  0  0  0  0  0  0
    8.1440   27.1140    3.4130 S   0  0  0  0  0  0  0  0  0  0  0  0
    4.8580   24.3160    4.7890 C   0  0  0  0  0  0  0  0  0  0  0  0
    8.6320   23.6830    1.3110 N   0  0  0  0  0  0  0  0  0  0  0  0
    8.0910   22.5070    0.7500 O   0  0  0  0  0  0  0  0  0  0  0  0
    4.2260   22.4650    6.3280 C   0  0  0  0  0  0  0  0  0  0  0  0
    7.8370   28.5040    3.7570 O   0  0  0  0  0  0  0  0  0  0  0  0
    2.4570   23.6920    5.2200 C   0  0  0  0  0  0  0  0  0  0  0  0
    9.4250   26.5820    3.8680 O   0  0  0  0  0  0  0  0  0  0  0  0
    4.5700   25.6590    4.4880 C   0  0  0  0  0  0  0  0  0  0  0  0
    3.2730   21.7290    7.0320 C   0  0  0  0  0  0  0  0  0  0  0  0
    1.5070   22.9550    5.9320 C   0  0  0  0  0  0  0  0  0  0  0  0
    6.1570   23.8300    4.5450 C   0  0  0  0  0  0  0  0  0  0  0  0
    1.9100   21.9750    6.8430 C   0  0  0  0  0  0  0  0  0  0  0  0
    5.5770   26.5190    4.0520 C   0  0  0  0  0  0  0  0  0  0  0  0
    7.1640   24.6900    4.1100 C   0  0  0  0  0  0  0  0  0  0  0  0
    8.9010   26.0950    0.9540 C   0  0  0  0  0  0  0  0  0  0  0  0
    6.8820   26.0460    3.8880 C   0  0  0  0  0  0  0  0  0  0  0  0
    8.0760   24.8340    0.6650 C   0  0  0  0  0  0  0  0  0  0  0  0
    7.9730   27.9520    1.1850 H   0  0  0  0  0  0  0  0  0  0  0  0
    9.6670   23.5660    1.4090 H   0  0  0  0  0  0  0  0  0  0  0  0
    8.3110   21.7780    1.5260 H   0  0  0  0  0  0  0  0  0  0  0  0
    5.2850   22.2730    6.5100 H   0  0  0  0  0  0  0  0  0  0  0  0
    2.1110   24.4360    4.4980 H   0  0  0  0  0  0  0  0  0  0  0  0
    3.5530   26.0390    4.5980 H   0  0  0  0  0  0  0  0  0  0  0  0
    3.6030   20.9680    7.7320 H   0  0  0  0  0  0  0  0  0  0  0  0
    0.4430   23.1420    5.7640 H   0  0  0  0  0  0  0  0  0  0  0  0
    6.3950   22.7720    4.6840 H   0  0  0  0  0  0  0  0  0  0  0  0
    1.1650   21.4050    7.4000 H   0  0  0  0  0  0  0  0  0  0  0  0
    5.3320   27.5680    3.8560 H   0  0  0  0  0  0  0  0  0  0  0  0
    8.1750   24.2910    3.9470 H   0  0  0  0  0  0  0  0  0  0  0  0
    9.2470   26.5220   -0.0340 H   0  0  0  0  0  0  0  0  0  0  0  0
    9.8430   25.8440    1.5310 H   0  0  0  0  0  0  0  0  0  0  0  0
  1  5  1  0  0  0  0
  1 10  2  0  0  0  0
  1  8  1  0  0  0  0
  2 19  1  0  0  0  0
  2  4  1  0  0  0  0
  2 22  1  0  0  0  0
  3 21  2  0  0  0  0
  4 11  2  0  0  0  0
  4 20  1  0  0  0  0
  4  9  2  0  0  0  0
  5 15  2  0  0  0  0
  5 12  1  0  0  0  0
  6  7  1  0  0  0  0
  6 21  1  0  0  0  0
  6 23  1  0  0  0  0
  7 24  1  0  0  0  0
  8 13  2  0  0  0  0
  8 25  1  0  0  0  0
 10 14  1  0  0  0  0
 10 26  1  0  0  0  0
 12 17  2  0  0  0  0
 12 27  1  0  0  0  0
 13 16  1  0  0  0  0
 13 28  1  0  0  0  0
 14 16  2  0  0  0  0
 14 29  1  0  0  0  0
 15 18  1  0  0  0  0
 15 30  1  0  0  0  0
 16 31  1  0  0  0  0
 17 20  1  0  0  0  0
 17 32  1  0  0  0  0
 18 20  2  0  0  0  0
 18 33  1  0  0  0  0
 19 21  1  0  0  0  0
 19 34  1  0  0  0  0
 19 35  1  0  0  0  0
M  END
>  <COMPND>
3f17.pdb

>  <AUTHOR>
GENERATED BY OPEN BABEL 2.3.1

>  <MASTER>
0    0    0    0    0    0    0    0   35    0   35    0

>  <lm5_entropy_jk>
21.752168152254768

>  <number_of_rotatable_bonds>
6

>  <deltaG_kcalmol>
-11.78

>  <charge>
0

$$$$
