2IKH
 OpenBabel11252210453D

 22 23  0  0  0  0  0  0  0  0999 V2000
   17.0010   -4.4790   11.1400 C   0  0  0  0  0  0  0  0  0  0  0  0
   15.6480   -4.7470   11.0800 C   0  0  0  0  0  0  0  0  0  0  0  0
   15.4000   -5.6760   12.1240 C   0  0  0  0  0  0  0  0  0  0  0  0
   16.6240   -5.8550   12.7110 C   0  0  0  0  0  0  0  0  0  0  0  0
   16.7860   -6.6090   13.9290 C   0  0  0  0  0  0  0  0  0  0  0  0
   17.9660   -6.6240   14.5230 N   0  0  0  0  0  0  0  0  0  0  0  0
   17.7390   -7.2540   15.7200 N   0  0  0  0  0  0  0  0  0  0  0  0
   16.4530   -7.5560   15.7170 C   0  0  0  0  0  0  0  0  0  0  0  0
   15.7350   -8.3230   17.1430 S   0  0  0  0  0  0  0  0  0  0  0  0
   16.1950   -7.1540   18.5070 C   0  0  0  0  0  0  0  0  0  0  0  0
   15.3570   -5.9350   18.4570 C   0  0  0  0  0  0  0  0  0  0  0  0
   14.9570   -5.5140   19.5260 O   0  5  0  0  0  0  0  0  0  0  0  0
   14.9540   -5.5760   17.3760 O   0  0  0  0  0  0  0  0  0  0  0  0
   15.7720   -7.2200   14.5920 O   0  0  0  0  0  0  0  0  0  0  0  0
   17.6600   -5.1850   12.1240 O   0  0  0  0  0  0  0  0  0  0  0  0
   17.7680   -3.5360   10.3610 N   0  3  0  0  0  0  0  0  0  0  0  0
   17.1500   -2.8430    9.5550 O   0  5  0  0  0  0  0  0  0  0  0  0
   18.9930   -3.6490   10.3690 O   0  0  0  0  0  0  0  0  0  0  0  0
   16.0350   -7.6020   19.4850 H   0  0  0  0  0  0  0  0  0  0  0  0
   17.2350   -6.8390   18.4220 H   0  0  0  0  0  0  0  0  0  0  0  0
   14.4390   -6.0690   12.4410 H   0  0  0  0  0  0  0  0  0  0  0  0
   14.9140   -4.2940   10.4140 H   0  0  0  0  0  0  0  0  0  0  0  0
  1  2  2  0  0  0  0
  1 15  1  0  0  0  0
  2  3  1  0  0  0  0
  3 21  1  0  0  0  0
  3  4  2  0  0  0  0
  4  5  1  0  0  0  0
  5  6  2  0  0  0  0
  5 14  1  0  0  0  0
  6  7  1  0  0  0  0
  7  8  2  0  0  0  0
  8  9  1  0  0  0  0
  9 10  1  0  0  0  0
 10 19  1  0  0  0  0
 11 10  1  0  0  0  0
 11 12  1  0  0  0  0
 13 11  2  0  0  0  0
 14  8  1  0  0  0  0
 15  4  1  0  0  0  0
 16 18  2  0  0  0  0
 16  1  1  0  0  0  0
 17 16  1  0  0  0  0
 20 10  1  0  0  0  0
 22  2  1  0  0  0  0
M  CHG  3  12  -1  16   1  17  -1
M  END
>  <lm5_entropy_jk>
25.077845360290652

>  <number_of_rotatable_bonds>
5

>  <deltaG_kcalmol>
-7.48

>  <charge>
-1

$$$$
