2IKH
 OpenBabel11252210453D

 22 23  0  0  0  0  0  0  0  0999 V2000
   16.9680   -4.4160   10.9810 C   0  0  0  0  0  0  0  0  0  0  0  0
   15.6010   -4.6000   10.9110 C   0  0  0  0  0  0  0  0  0  0  0  0
   15.2810   -5.4880   11.9730 C   0  0  0  0  0  0  0  0  0  0  0  0
   16.4870   -5.7330   12.5750 C   0  0  0  0  0  0  0  0  0  0  0  0
   16.5910   -6.4840   13.8020 C   0  0  0  0  0  0  0  0  0  0  0  0
   17.7670   -6.5830   14.3940 N   0  0  0  0  0  0  0  0  0  0  0  0
   17.5010   -7.2200   15.5780 N   0  0  0  0  0  0  0  0  0  0  0  0
   16.1980   -7.4360   15.5730 C   0  0  0  0  0  0  0  0  0  0  0  0
   15.4340   -8.2050   16.9750 S   0  0  0  0  0  0  0  0  0  0  0  0
   16.1440   -7.2720   18.4100 C   0  0  0  0  0  0  0  0  0  0  0  0
   15.5550   -5.9210   18.4820 C   0  0  0  0  0  0  0  0  0  0  0  0
   15.0950   -5.5850   19.5550 O   0  5  0  0  0  0  0  0  0  0  0  0
   15.3430   -5.3490   17.4390 O   0  0  0  0  0  0  0  0  0  0  0  0
   15.5370   -7.0350   14.4570 O   0  0  0  0  0  0  0  0  0  0  0  0
   17.5700   -5.1420   11.9850 O   0  0  0  0  0  0  0  0  0  0  0  0
   17.7990   -3.5310   10.1990 N   0  3  0  0  0  0  0  0  0  0  0  0
   17.2330   -2.8200    9.3700 O   0  5  0  0  0  0  0  0  0  0  0  0
   19.0220   -3.6760   10.2610 O   0  0  0  0  0  0  0  0  0  0  0  0
   15.9240   -7.7620   19.3570 H   0  0  0  0  0  0  0  0  0  0  0  0
   17.2230   -7.1470   18.3140 H   0  0  0  0  0  0  0  0  0  0  0  0
   14.2950   -5.8110   12.2920 H   0  0  0  0  0  0  0  0  0  0  0  0
   14.9040   -4.1120   10.2300 H   0  0  0  0  0  0  0  0  0  0  0  0
  1  2  2  0  0  0  0
  1 15  1  0  0  0  0
  2  3  1  0  0  0  0
  3 21  1  0  0  0  0
  3  4  2  0  0  0  0
  4  5  1  0  0  0  0
  5  6  2  0  0  0  0
  5 14  1  0  0  0  0
  6  7  1  0  0  0  0
  7  8  2  0  0  0  0
  8  9  1  0  0  0  0
  9 10  1  0  0  0  0
 10 19  1  0  0  0  0
 11 10  1  0  0  0  0
 11 12  1  0  0  0  0
 13 11  2  0  0  0  0
 14  8  1  0  0  0  0
 15  4  1  0  0  0  0
 16 18  2  0  0  0  0
 16  1  1  0  0  0  0
 17 16  1  0  0  0  0
 20 10  1  0  0  0  0
 22  2  1  0  0  0  0
M  CHG  3  12  -1  16   1  17  -1
M  END
>  <lm5_entropy_jk>
25.077845360290652

>  <number_of_rotatable_bonds>
5

>  <deltaG_kcalmol>
-7.48

>  <charge>
-1

$$$$
