model24
 OpenBabel11252210453D

 76 77  0  0  1  0  0  0  0  0999 V2000
   13.4380   14.8230    8.0830 C   0  0  0  0  0  0  0  0  0  0  0  0
   11.1110   17.9750    7.6040 C   0  0  1  0  0  0  0  0  0  0  0  0
   14.7350   14.6290    7.6700 N   0  0  0  0  0  0  0  0  0  0  0  0
    8.1950   18.4660    8.9110 N   0  0  0  0  0  0  0  0  0  0  0  0
   12.0070   18.7850    6.8530 O   0  0  0  0  0  0  0  0  0  0  0  0
   13.7060   12.2640    8.0820 S   0  0  0  0  0  0  0  0  0  0  0  0
   12.7430   13.6830    8.3750 C   0  0  0  0  0  0  0  0  0  0  0  0
    9.7150   18.2710    7.0260 C   0  0  0  0  0  0  0  0  0  0  0  0
    4.6720   17.5420    9.5730 N   0  0  0  0  0  0  0  0  0  0  0  0
    5.4920   19.4540    8.6460 O   0  0  0  0  0  0  0  0  0  0  0  0
    8.6230   17.6990    7.8570 C   0  0  0  0  0  0  0  0  0  0  0  0
   11.6990   16.0420    6.0900 N   0  0  0  0  0  0  0  0  0  0  0  0
    8.1610   16.6060    7.6230 O   0  0  0  0  0  0  0  0  0  0  0  0
   15.0110   13.3330    7.6110 C   0  0  0  0  0  0  0  0  0  0  0  0
    7.0840   18.0200    9.8190 C   0  0  1  0  0  0  0  0  0  0  0  0
   10.3340   14.2110    6.0870 O   0  0  0  0  0  0  0  0  0  0  0  0
    7.3580   18.4270   11.2930 C   0  0  0  0  0  0  0  0  0  0  0  0
    6.4710   17.6790   12.2940 C   0  0  0  0  0  0  0  0  0  0  0  0
    7.1470   19.9310   11.5180 C   0  0  0  0  0  0  0  0  0  0  0  0
    5.6890   18.4340    9.2890 C   0  0  0  0  0  0  0  0  0  0  0  0
    3.3980   17.4850    8.8290 C   0  0  0  0  0  0  0  0  0  0  0  0
    3.4120   16.2880    7.8460 C   0  0  0  0  0  0  0  0  0  0  0  0
    4.4480   16.4550    6.6990 C   0  0  0  0  0  0  0  0  0  0  0  0
    3.9390   17.4020    5.5820 C   0  0  0  0  0  0  0  0  0  0  0  0
    5.0750   17.9100    4.6560 C   0  0  0  0  0  0  0  0  0  0  0  0
    6.0010   16.7790    4.1520 C   0  0  0  0  0  0  0  0  0  0  0  0
    6.8830   17.2550    2.9760 C   0  0  0  0  0  0  0  0  0  0  0  0
    7.8770   16.1610    2.5260 C   0  0  0  0  0  0  0  0  0  0  0  0
    9.1280   16.1220    3.4270 C   0  0  0  0  0  0  0  0  0  0  0  0
    9.9880   14.8720    3.1430 C   0  0  0  0  0  0  0  0  0  0  0  0
   11.2900   14.8990    4.0000 C   0  0  0  0  0  0  0  0  0  0  0  0
   11.5330   16.4590    7.4910 C   0  0  1  0  0  0  0  0  0  0  0  0
   11.0540   14.9920    5.4910 C   0  0  0  0  0  0  0  0  0  0  0  0
   12.8540   16.1880    8.2630 C   0  0  0  0  0  0  0  0  0  0  0  0
    8.5730   19.4080    8.9930 H   0  0  0  0  0  0  0  0  0  0  0  0
   11.1410   18.2690    8.6700 H   0  0  0  0  0  0  0  0  0  0  0  0
   12.6830   19.1400    7.4900 H   0  0  0  0  0  0  0  0  0  0  0  0
    9.6120   17.8300    6.0320 H   0  0  0  0  0  0  0  0  0  0  0  0
    4.9580   16.7050   10.0760 H   0  0  0  0  0  0  0  0  0  0  0  0
   12.3340   16.5750    5.5110 H   0  0  0  0  0  0  0  0  0  0  0  0
    7.0390   16.9280    9.7940 H   0  0  0  0  0  0  0  0  0  0  0  0
    8.4040   18.1570   11.5100 H   0  0  0  0  0  0  0  0  0  0  0  0
   11.7240   13.5900    8.7190 H   0  0  0  0  0  0  0  0  0  0  0  0
   12.6980   16.3670    9.3320 H   0  0  0  0  0  0  0  0  0  0  0  0
   13.5990   16.9260    7.9520 H   0  0  0  0  0  0  0  0  0  0  0  0
   15.9590   12.9070    7.2980 H   0  0  0  0  0  0  0  0  0  0  0  0
    6.7400   17.9320   13.3280 H   0  0  0  0  0  0  0  0  0  0  0  0
    7.7100   20.5200   10.7850 H   0  0  0  0  0  0  0  0  0  0  0  0
    3.2360   18.4280    8.2800 H   0  0  0  0  0  0  0  0  0  0  0  0
    2.4080   16.1400    7.4230 H   0  0  0  0  0  0  0  0  0  0  0  0
    4.6710   15.4740    6.2620 H   0  0  0  0  0  0  0  0  0  0  0  0
    3.4420   18.2750    6.0250 H   0  0  0  0  0  0  0  0  0  0  0  0
    5.6760   18.6550    5.1960 H   0  0  0  0  0  0  0  0  0  0  0  0
    5.4030   15.9150    3.8340 H   0  0  0  0  0  0  0  0  0  0  0  0
    7.4190   18.1760    3.2420 H   0  0  0  0  0  0  0  0  0  0  0  0
    8.1820   16.3460    1.4860 H   0  0  0  0  0  0  0  0  0  0  0  0
    8.8230   16.1240    4.4830 H   0  0  0  0  0  0  0  0  0  0  0  0
   10.2340   14.8180    2.0710 H   0  0  0  0  0  0  0  0  0  0  0  0
   11.9290   15.7320    3.6980 H   0  0  0  0  0  0  0  0  0  0  0  0
   10.7290   15.8500    7.9350 H   0  0  0  0  0  0  0  0  0  0  0  0
    9.5330   19.3410    6.9350 H   0  0  0  0  0  0  0  0  0  0  0  0
    6.5750   16.5940   12.1830 H   0  0  0  0  0  0  0  0  0  0  0  0
    7.4320   20.2430   12.5300 H   0  0  0  0  0  0  0  0  0  0  0  0
    2.5630   17.3830    9.5400 H   0  0  0  0  0  0  0  0  0  0  0  0
    3.6340   15.3690    8.4080 H   0  0  0  0  0  0  0  0  0  0  0  0
    5.4120   16.8150    7.0890 H   0  0  0  0  0  0  0  0  0  0  0  0
    3.1730   16.8890    4.9840 H   0  0  0  0  0  0  0  0  0  0  0  0
    4.6330   18.4420    3.8030 H   0  0  0  0  0  0  0  0  0  0  0  0
    6.6340   16.4350    4.9810 H   0  0  0  0  0  0  0  0  0  0  0  0
    6.2320   17.5090    2.1300 H   0  0  0  0  0  0  0  0  0  0  0  0
    7.3740   15.1850    2.5240 H   0  0  0  0  0  0  0  0  0  0  0  0
    9.7230   17.0340    3.2740 H   0  0  0  0  0  0  0  0  0  0  0  0
    9.4150   13.9620    3.3730 H   0  0  0  0  0  0  0  0  0  0  0  0
   11.8700   13.9840    3.8480 H   0  0  0  0  0  0  0  0  0  0  0  0
    6.0920   20.2020   11.3880 H   0  0  0  0  0  0  0  0  0  0  0  0
    5.4090   17.9300   12.1700 H   0  0  0  0  0  0  0  0  0  0  0  0
  1 34  1  0  0  0  0
  1  7  2  0  0  0  0
  2 36  1  1  0  0  0
  2 32  1  0  0  0  0
  3 14  2  0  0  0  0
  3  1  1  0  0  0  0
  4 35  1  0  0  0  0
  4 15  1  0  0  0  0
  5 37  1  0  0  0  0
  5  2  1  0  0  0  0
  6  7  1  0  0  0  0
  7 43  1  0  0  0  0
  8  2  1  0  0  0  0
  8 11  1  0  0  0  0
  9 39  1  0  0  0  0
 10 20  2  0  0  0  0
 11  4  1  0  0  0  0
 12 32  1  0  0  0  0
 13 11  2  0  0  0  0
 14  6  1  0  0  0  0
 15 41  1  1  0  0  0
 15 17  1  0  0  0  0
 17 42  1  0  0  0  0
 17 18  1  0  0  0  0
 18 62  1  0  0  0  0
 18 47  1  0  0  0  0
 19 17  1  0  0  0  0
 19 63  1  0  0  0  0
 20  9  1  0  0  0  0
 20 15  1  0  0  0  0
 21  9  1  0  0  0  0
 21 64  1  0  0  0  0
 22 65  1  0  0  0  0
 22 21  1  0  0  0  0
 23 66  1  0  0  0  0
 23 22  1  0  0  0  0
 24 52  1  0  0  0  0
 24 23  1  0  0  0  0
 25 53  1  0  0  0  0
 25 24  1  0  0  0  0
 26 25  1  0  0  0  0
 26 69  1  0  0  0  0
 27 55  1  0  0  0  0
 27 26  1  0  0  0  0
 28 27  1  0  0  0  0
 28 29  1  0  0  0  0
 29 57  1  0  0  0  0
 30 29  1  0  0  0  0
 30 73  1  0  0  0  0
 30 31  1  0  0  0  0
 31 33  1  0  0  0  0
 32 60  1  1  0  0  0
 32 34  1  0  0  0  0
 33 12  1  0  0  0  0
 33 16  2  0  0  0  0
 34 44  1  0  0  0  0
 38  8  1  0  0  0  0
 40 12  1  0  0  0  0
 45 34  1  0  0  0  0
 46 14  1  0  0  0  0
 48 19  1  0  0  0  0
 49 21  1  0  0  0  0
 50 22  1  0  0  0  0
 51 23  1  0  0  0  0
 54 26  1  0  0  0  0
 56 28  1  0  0  0  0
 58 30  1  0  0  0  0
 59 31  1  0  0  0  0
 61  8  1  0  0  0  0
 67 24  1  0  0  0  0
 68 25  1  0  0  0  0
 70 27  1  0  0  0  0
 71 28  1  0  0  0  0
 72 29  1  0  0  0  0
 74 31  1  0  0  0  0
 75 19  1  0  0  0  0
 76 18  1  0  0  0  0
M  END
>  <IC50_NM>
600

>  <number_of_rotatable_bonds>
3

>  <charge>
0

>  <lm5_entropy_jk>
30.51387600249522

$$$$
