3QTW
 OpenBabel11252210453D

 33 35  0  0  1  0  0  0  0  0999 V2000
   65.7940  154.4150  -50.4630 N   0  0  0  0  0  0  0  0  0  0  0  0
   67.3590  153.6260  -52.1150 N   0  0  0  0  0  0  0  0  0  0  0  0
   70.9090  150.1600  -47.6500 N   0  0  0  0  0  0  0  0  0  0  0  0
   64.3960  154.7350  -48.5790 N   0  0  0  0  0  0  0  0  0  0  0  0
   66.9230  153.6380  -50.8330 C   0  0  0  0  0  0  0  0  0  0  0  0
   67.5170  152.8460  -49.8180 C   0  0  0  0  0  0  0  0  0  0  0  0
   68.5950  151.9380  -50.0210 C   0  0  0  0  0  0  0  0  0  0  0  0
   69.0300  151.0500  -48.9000 C   0  0  0  0  0  0  0  0  0  0  0  0
   70.4000  151.0210  -48.5630 C   0  0  0  0  0  0  0  0  0  0  0  0
   70.0460  149.3090  -47.0240 C   0  0  0  0  0  0  0  0  0  0  0  0
   68.6690  149.3030  -47.2870 C   0  0  0  0  0  0  0  0  0  0  0  0
   68.1520  150.1830  -48.2420 C   0  0  0  0  0  0  0  0  0  0  0  0
   65.4840  154.1440  -49.1680 C   0  0  0  0  0  0  0  0  0  0  0  0
   63.7560  154.3960  -47.3390 C   0  0  0  0  0  0  0  0  0  0  0  0
   62.8020  155.3340  -46.8800 C   0  0  0  0  0  0  0  0  0  0  0  0
   62.1340  155.1080  -45.6800 C   0  0  0  0  0  0  0  0  0  0  0  0
   62.4010  153.9570  -44.9280 C   0  0  0  0  0  0  0  0  0  0  0  0
   63.3260  153.0240  -45.4000 C   0  0  0  0  0  0  0  0  0  0  0  0
   63.9960  153.2220  -46.6140 C   0  0  0  0  0  0  0  0  0  0  0  0
   69.1900  151.8540  -51.0960 O   0  0  0  0  0  0  0  0  0  0  0  0
   66.6620  153.0130  -48.3310 S   0  0  0  0  0  0  0  0  0  0  0  0
   66.9370  154.2220  -52.8480 H   0  0  0  0  0  0  0  0  0  0  0  0
   68.2000  153.0760  -52.3600 H   0  0  0  0  0  0  0  0  0  0  0  0
   71.1020  151.7180  -49.0470 H   0  0  0  0  0  0  0  0  0  0  0  0
   70.4680  148.6140  -46.2830 H   0  0  0  0  0  0  0  0  0  0  0  0
   68.0100  148.6130  -46.7510 H   0  0  0  0  0  0  0  0  0  0  0  0
   67.0790  150.1720  -48.4580 H   0  0  0  0  0  0  0  0  0  0  0  0
   63.7920  155.3330  -49.2030 H   0  0  0  0  0  0  0  0  0  0  0  0
   62.5780  156.2290  -47.4640 H   0  0  0  0  0  0  0  0  0  0  0  0
   61.3980  155.8370  -45.3270 H   0  0  0  0  0  0  0  0  0  0  0  0
   61.8910  153.7940  -43.9770 H   0  0  0  0  0  0  0  0  0  0  0  0
   63.5390  152.1240  -44.8160 H   0  0  0  0  0  0  0  0  0  0  0  0
   64.6710  152.4390  -46.9630 H   0  0  0  0  0  0  0  0  0  0  0  0
  1  5  1  0  0  0  0
  1 13  2  0  0  0  0
  2  5  1  0  0  0  0
  2 22  1  0  0  0  0
  2 23  1  0  0  0  0
  3  9  2  0  0  0  0
  3 10  1  0  0  0  0
  4 13  1  0  0  0  0
  4 14  1  0  0  0  0
  4 28  1  0  0  0  0
  5  6  2  0  0  0  0
  6 21  1  0  0  0  0
  7  6  1  0  0  0  0
  7  8  1  0  0  0  0
  7 20  2  0  0  0  0
  8  9  1  0  0  0  0
  8 12  2  0  0  0  0
  9 24  1  0  0  0  0
 10 11  2  0  0  0  0
 10 25  1  0  0  0  0
 11 12  1  0  0  0  0
 11 26  1  0  0  0  0
 12 27  1  0  0  0  0
 13 21  1  0  0  0  0
 14 15  2  0  0  0  0
 14 19  1  0  0  0  0
 15 16  1  0  0  0  0
 15 29  1  0  0  0  0
 16 17  2  0  0  0  0
 16 30  1  0  0  0  0
 17 18  1  0  0  0  0
 17 31  1  0  0  0  0
 18 19  2  0  0  0  0
 18 32  1  0  0  0  0
 19 33  1  0  0  0  0
M  END
>  <lm5_entropy_jk>
20.66385753466715

>  <number_of_rotatable_bonds>
4

>  <IC50_NM>
650

>  <charge>
0

$$$$
