model16a
 OpenBabel11252210453D

 88 92  0  0  1  0  0  0  0  0999 V2000
    8.4560   -6.0700   17.5930 C   0  0  0  0  0  0  0  0  0  0  0  0
    8.1070   -5.3570   16.4410 O   0  0  0  0  0  0  0  0  0  0  0  0
    7.4470   -6.6780   18.3650 C   0  0  0  0  0  0  0  0  0  0  0  0
    6.5390   -3.5580   14.5990 O   0  0  0  0  0  0  0  0  0  0  0  0
    7.8240   -7.6880   19.2620 C   0  0  0  0  0  0  0  0  0  0  0  0
    5.4890   -3.3560   16.6200 N   0  0  0  0  0  0  0  0  0  0  0  0
    9.1620   -8.0590   19.3950 C   0  0  0  0  0  0  0  0  0  0  0  0
    6.9640    0.8950   12.5710 C   0  0  0  0  0  0  0  0  0  0  0  0
    4.2300    0.3790   13.7230 N   0  0  0  0  0  0  0  0  0  0  0  0
    5.1630    0.8370   16.4740 O   0  0  0  0  0  0  0  0  0  0  0  0
   10.1580   -7.3630   18.7090 C   0  0  0  0  0  0  0  0  0  0  0  0
    6.3750    1.9180   11.8120 C   0  0  0  0  0  0  0  0  0  0  0  0
    4.0240   -1.3130   12.2140 O   0  0  0  0  0  0  0  0  0  0  0  0
    9.8230   -6.3270   17.8260 C   0  0  0  0  0  0  0  0  0  0  0  0
    6.5680    1.9600   10.4290 C   0  0  0  0  0  0  0  0  0  0  0  0
   10.8840   -5.5130   17.1720 C   0  0  0  0  0  0  0  0  0  0  0  0
    7.3570    0.9930    9.8000 C   0  0  0  0  0  0  0  0  0  0  0  0
    6.0230   -6.2700   18.2520 C   0  0  0  0  0  0  0  0  0  0  0  0
    7.9740   -0.0060   10.5600 C   0  0  0  0  0  0  0  0  0  0  0  0
    7.7830   -0.0570   11.9430 C   0  0  0  0  0  0  0  0  0  0  0  0
    7.8850   -3.9380   16.5970 C   0  0  0  0  0  0  0  0  0  0  0  0
    6.5980   -3.6160   15.8150 C   0  0  0  0  0  0  0  0  0  0  0  0
    4.2110   -2.8150   16.0930 C   0  0  1  0  0  0  0  0  0  0  0  0
    2.2680   -6.7800   15.3680 C   0  0  0  0  0  0  0  0  0  0  0  0
    2.4980   -7.6400   16.4480 C   0  0  0  0  0  0  0  0  0  0  0  0
    2.8550   -7.1100   17.6900 C   0  0  0  0  0  0  0  0  0  0  0  0
    3.0210   -5.7300   17.8420 C   0  0  0  0  0  0  0  0  0  0  0  0
    2.8360   -4.8720   16.7490 C   0  0  0  0  0  0  0  0  0  0  0  0
    2.4370   -5.4030   15.5120 C   0  0  0  0  0  0  0  0  0  0  0  0
    3.0320   -3.3940   16.9190 C   0  0  0  0  0  0  0  0  0  0  0  0
    4.1620   -1.2810   16.2670 C   0  0  0  0  0  0  0  0  0  0  0  0
    5.3550   -0.4440   15.8130 C   0  0  1  0  0  0  0  0  0  0  0  0
    5.4850   -0.1750   14.2910 C   0  0  2  0  0  0  0  0  0  0  0  0
    3.6380   -0.2310   12.6350 C   0  0  0  0  0  0  0  0  0  0  0  0
    2.4140    0.4440   11.9880 C   0  0  1  0  0  0  0  0  0  0  0  0
    1.9470    1.5770   12.7860 O   0  0  0  0  0  0  0  0  0  0  0  0
    6.6720    0.7900   14.0410 C   0  0  0  0  0  0  0  0  0  0  0  0
    1.6360    2.6680   11.9520 C   0  0  0  0  0  0  0  0  0  0  0  0
    1.1090    3.6520   12.3950 O   0  0  0  0  0  0  0  0  0  0  0  0
    2.1350    2.3980   10.6670 N   0  0  0  0  0  0  0  0  0  0  0  0
    2.7230    1.0290   10.5900 C   0  0  0  0  0  0  0  0  0  0  0  0
    1.7700    3.1340    9.4850 C   0  0  0  0  0  0  0  0  0  0  0  0
    2.7440    3.3660    8.5000 C   0  0  0  0  0  0  0  0  0  0  0  0
    2.4110    4.1250    7.3770 C   0  0  0  0  0  0  0  0  0  0  0  0
    1.1290    4.6680    7.2450 C   0  0  0  0  0  0  0  0  0  0  0  0
    0.1690    4.4410    8.2360 C   0  0  0  0  0  0  0  0  0  0  0  0
    0.4720    3.6560    9.3500 C   0  0  0  0  0  0  0  0  0  0  0  0
   11.0000   -4.5420   17.7170 H   0  0  0  0  0  0  0  0  0  0  0  0
   10.6240   -5.2970   16.1090 H   0  0  0  0  0  0  0  0  0  0  0  0
    5.7090   -6.1720   17.1860 H   0  0  0  0  0  0  0  0  0  0  0  0
    5.5580   -3.3460   17.6530 H   0  0  0  0  0  0  0  0  0  0  0  0
    3.9500    1.3050   14.0470 H   0  0  0  0  0  0  0  0  0  0  0  0
    6.0200    0.9830   17.0210 H   0  0  0  0  0  0  0  0  0  0  0  0
    7.0610   -8.2100   19.8460 H   0  0  0  0  0  0  0  0  0  0  0  0
    5.7690    2.6850   12.2980 H   0  0  0  0  0  0  0  0  0  0  0  0
    9.4320   -8.8950   20.0480 H   0  0  0  0  0  0  0  0  0  0  0  0
    6.0980    2.7460    9.8320 H   0  0  0  0  0  0  0  0  0  0  0  0
    7.4760    1.0210    8.7160 H   0  0  0  0  0  0  0  0  0  0  0  0
   11.1990   -7.6580   18.8440 H   0  0  0  0  0  0  0  0  0  0  0  0
    8.5980   -0.7510   10.0700 H   0  0  0  0  0  0  0  0  0  0  0  0
    8.2750   -0.8300   12.5340 H   0  0  0  0  0  0  0  0  0  0  0  0
    8.7540   -3.4280   16.1140 H   0  0  0  0  0  0  0  0  0  0  0  0
    4.1080   -3.0970   15.0150 H   0  0  0  0  0  0  0  0  0  0  0  0
    7.7940   -3.6520   17.6570 H   0  0  0  0  0  0  0  0  0  0  0  0
   11.8670   -6.0390   17.2060 H   0  0  0  0  0  0  0  0  0  0  0  0
    5.8620   -5.2870   18.7550 H   0  0  0  0  0  0  0  0  0  0  0  0
    5.3510   -7.0160   18.7430 H   0  0  0  0  0  0  0  0  0  0  0  0
    1.9600   -7.1860   14.4100 H   0  0  0  0  0  0  0  0  0  0  0  0
    2.4020   -8.7200   16.3340 H   0  0  0  0  0  0  0  0  0  0  0  0
    3.0030   -7.7700   18.5470 H   0  0  0  0  0  0  0  0  0  0  0  0
    3.2910   -5.3210   18.8170 H   0  0  0  0  0  0  0  0  0  0  0  0
    2.2450   -4.7320   14.6760 H   0  0  0  0  0  0  0  0  0  0  0  0
    2.0950   -2.8610   16.6240 H   0  0  0  0  0  0  0  0  0  0  0  0
    3.2040   -3.1630   18.0040 H   0  0  0  0  0  0  0  0  0  0  0  0
    4.0980   -1.0950   17.3730 H   0  0  0  0  0  0  0  0  0  0  0  0
    3.2280   -0.9080   15.7840 H   0  0  0  0  0  0  0  0  0  0  0  0
    6.3140   -0.8820   16.1880 H   0  0  0  0  0  0  0  0  0  0  0  0
    5.7080   -1.1620   13.7920 H   0  0  0  0  0  0  0  0  0  0  0  0
    1.5580   -0.2750   11.9790 H   0  0  0  0  0  0  0  0  0  0  0  0
    6.4400    1.7970   14.4710 H   0  0  0  0  0  0  0  0  0  0  0  0
    7.5680    0.4140   14.6000 H   0  0  0  0  0  0  0  0  0  0  0  0
    2.2580    0.4290    9.7680 H   0  0  0  0  0  0  0  0  0  0  0  0
    3.8280    1.1190   10.4010 H   0  0  0  0  0  0  0  0  0  0  0  0
    3.7610    2.9820    8.6090 H   0  0  0  0  0  0  0  0  0  0  0  0
    3.1660    4.3100    6.6060 H   0  0  0  0  0  0  0  0  0  0  0  0
    0.8840    5.2740    6.3690 H   0  0  0  0  0  0  0  0  0  0  0  0
   -0.8300    4.8760    8.1350 H   0  0  0  0  0  0  0  0  0  0  0  0
   -0.3000    3.4520   10.0930 H   0  0  0  0  0  0  0  0  0  0  0  0
  1  2  1  0  0  0  0
  1  3  2  0  0  0  0
  1 14  1  0  0  0  0
  2 21  1  0  0  0  0
  3  5  1  0  0  0  0
  3 18  1  0  0  0  0
  4 22  2  0  0  0  0
  5  7  2  0  0  0  0
  5 54  1  0  0  0  0
  6 22  1  0  0  0  0
  6 23  1  0  0  0  0
  6 51  1  0  0  0  0
  7 11  1  0  0  0  0
  7 56  1  0  0  0  0
  8 12  2  0  0  0  0
  8 20  1  0  0  0  0
  8 37  1  0  0  0  0
  9 33  1  0  0  0  0
  9 34  1  0  0  0  0
  9 52  1  0  0  0  0
 10 32  1  0  0  0  0
 10 53  1  0  0  0  0
 11 14  2  0  0  0  0
 11 59  1  0  0  0  0
 12 15  1  0  0  0  0
 12 55  1  0  0  0  0
 13 34  2  0  0  0  0
 14 16  1  0  0  0  0
 15 17  2  0  0  0  0
 15 57  1  0  0  0  0
 16 48  1  0  0  0  0
 16 49  1  0  0  0  0
 16 65  1  0  0  0  0
 17 19  1  0  0  0  0
 17 58  1  0  0  0  0
 18 50  1  0  0  0  0
 18 66  1  0  0  0  0
 18 67  1  0  0  0  0
 19 20  2  0  0  0  0
 19 60  1  0  0  0  0
 20 61  1  0  0  0  0
 21 22  1  0  0  0  0
 21 62  1  0  0  0  0
 21 64  1  0  0  0  0
 23 30  1  0  0  0  0
 23 31  1  0  0  0  0
 23 63  1  6  0  0  0
 24 25  2  0  0  0  0
 24 29  1  0  0  0  0
 24 68  1  0  0  0  0
 25 26  1  0  0  0  0
 25 69  1  0  0  0  0
 26 27  2  0  0  0  0
 26 70  1  0  0  0  0
 27 28  1  0  0  0  0
 27 71  1  0  0  0  0
 28 29  2  0  0  0  0
 28 30  1  0  0  0  0
 29 72  1  0  0  0  0
 30 73  1  0  0  0  0
 30 74  1  0  0  0  0
 31 32  1  0  0  0  0
 31 75  1  0  0  0  0
 31 76  1  0  0  0  0
 32 33  1  0  0  0  0
 32 77  1  1  0  0  0
 33 37  1  0  0  0  0
 33 78  1  6  0  0  0
 34 35  1  0  0  0  0
 35 36  1  0  0  0  0
 35 41  1  0  0  0  0
 35 79  1  1  0  0  0
 36 38  1  0  0  0  0
 37 80  1  0  0  0  0
 37 81  1  0  0  0  0
 38 39  2  0  0  0  0
 38 40  1  0  0  0  0
 40 41  1  0  0  0  0
 40 42  1  0  0  0  0
 41 82  1  0  0  0  0
 41 83  1  0  0  0  0
 42 43  2  0  0  0  0
 42 47  1  0  0  0  0
 43 44  1  0  0  0  0
 43 84  1  0  0  0  0
 44 45  2  0  0  0  0
 44 85  1  0  0  0  0
 45 46  1  0  0  0  0
 45 86  1  0  0  0  0
 46 47  2  0  0  0  0
 46 87  1  0  0  0  0
 47 88  1  0  0  0  0
M  END
>  <charge>
0

>  <KI_NM>
8.05

>  <number_of_rotatable_bonds>
16

>  <lm5_entropy_jk>
39.45594585765423

>  <ligand_crystal_conformation>
A

$$$$
