4LAZ
 OpenBabel11252210453D

 35 36  0  0  0  0  0  0  0  0999 V2000
   14.3660  -12.0160   19.3330 Cl  0  0  0  0  0  0  0  0  0  0  0  0
   16.3970   -6.3110   12.6280 C   0  0  0  0  0  0  0  0  0  0  0  0
   17.7000   -6.0810   13.1050 C   0  0  0  0  0  0  0  0  0  0  0  0
   18.4430   -5.0180   12.5670 C   0  0  0  0  0  0  0  0  0  0  0  0
   15.8490   -5.4980   11.6180 C   0  0  0  0  0  0  0  0  0  0  0  0
   17.9140   -4.2150   11.5430 C   0  0  0  0  0  0  0  0  0  0  0  0
   16.6160   -4.4550   11.0730 C   0  0  0  0  0  0  0  0  0  0  0  0
   18.3580   -6.9710   14.1620 C   0  0  0  0  0  0  0  0  0  0  0  0
   17.4310   -7.8040   14.9630 N   0  0  0  0  0  0  0  0  0  0  0  0
   17.4810   -9.1750   15.0430 C   0  0  0  0  0  0  0  0  0  0  0  0
   18.1590   -9.8470   14.2860 O   0  0  0  0  0  0  0  0  0  0  0  0
   16.2180   -9.1310   17.2370 C   0  0  0  0  0  0  0  0  0  0  0  0
   16.6540   -9.8250   16.0970 C   0  0  0  0  0  0  0  0  0  0  0  0
   16.3420  -11.1900   15.9440 C   0  0  0  0  0  0  0  0  0  0  0  0
   15.4170   -9.7890   18.1760 C   0  0  0  0  0  0  0  0  0  0  0  0
   15.6030  -11.8490   16.9310 C   0  0  0  0  0  0  0  0  0  0  0  0
   15.1440  -11.1490   18.0410 C   0  0  0  0  0  0  0  0  0  0  0  0
   16.6990   -7.8550   17.4760 O   0  0  0  0  0  0  0  0  0  0  0  0
   16.4620   -7.0060   18.6460 C   0  0  0  0  0  0  0  0  0  0  0  0
   15.3640   -5.9650   18.4820 C   0  0  0  0  0  0  0  0  0  0  0  0
   14.9220   -5.4910   19.5180 O   0  0  0  0  0  0  0  0  0  0  0  0
   14.9090   -5.7470   17.3770 O   0  5  0  0  0  0  0  0  0  0  0  0
   15.7740   -3.1400    9.6220 I   0  0  0  0  0  0  0  0  0  0  0  0
   17.3580   -6.4220   18.8670 H   0  0  0  0  0  0  0  0  0  0  0  0
   15.7970   -7.1060   13.0600 H   0  0  0  0  0  0  0  0  0  0  0  0
   19.4320   -4.8150   12.9600 H   0  0  0  0  0  0  0  0  0  0  0  0
   14.8250   -5.6620   11.2840 H   0  0  0  0  0  0  0  0  0  0  0  0
   18.4840   -3.3720   11.1520 H   0  0  0  0  0  0  0  0  0  0  0  0
   18.9400   -6.3350   14.8420 H   0  0  0  0  0  0  0  0  0  0  0  0
   16.8730   -7.3780   15.7010 H   0  0  0  0  0  0  0  0  0  0  0  0
   16.6890  -11.7440   15.0690 H   0  0  0  0  0  0  0  0  0  0  0  0
   15.0710   -9.2710   19.0560 H   0  0  0  0  0  0  0  0  0  0  0  0
   15.3970  -12.9150   16.8410 H   0  0  0  0  0  0  0  0  0  0  0  0
   16.2390   -7.5760   19.5460 H   0  0  0  0  0  0  0  0  0  0  0  0
   19.0830   -7.6350   13.6720 H   0  0  0  0  0  0  0  0  0  0  0  0
  1 17  1  0  0  0  0
  2  3  2  0  0  0  0
  2  5  1  0  0  0  0
  2 25  1  0  0  0  0
  3  4  1  0  0  0  0
  3  8  1  0  0  0  0
  4  6  2  0  0  0  0
  4 26  1  0  0  0  0
  5  7  2  0  0  0  0
  5 27  1  0  0  0  0
  6  7  1  0  0  0  0
  6 28  1  0  0  0  0
  7 23  1  0  0  0  0
  8  9  1  0  0  0  0
  8 29  1  0  0  0  0
  8 35  1  0  0  0  0
  9 10  1  0  0  0  0
  9 30  1  0  0  0  0
 10 11  2  0  0  0  0
 10 13  1  0  0  0  0
 12 13  2  0  0  0  0
 12 15  1  0  0  0  0
 12 18  1  0  0  0  0
 13 14  1  0  0  0  0
 14 16  2  0  0  0  0
 14 31  1  0  0  0  0
 15 17  2  0  0  0  0
 15 32  1  0  0  0  0
 16 17  1  0  0  0  0
 16 33  1  0  0  0  0
 18 19  1  0  0  0  0
 19 20  1  0  0  0  0
 19 24  1  0  0  0  0
 19 34  1  0  0  0  0
 20 21  2  0  0  0  0
 20 22  1  0  0  0  0
M  CHG  1  22  -1
M  END
>  <deltaG_kcalmol>
-9.36

>  <charge>
-1

>  <lm5_entropy_jk>
25.63780735381752

>  <number_of_rotatable_bonds>
7

$$$$
