4LAZ
 OpenBabel11252210453D

 35 36  0  0  0  0  0  0  0  0999 V2000
   14.3380  -11.7590   19.0450 Cl  0  0  0  0  0  0  0  0  0  0  0  0
   17.1430   -6.5160   12.4100 C   0  0  0  0  0  0  0  0  0  0  0  0
   18.3010   -6.0520   13.0570 C   0  0  0  0  0  0  0  0  0  0  0  0
   18.8600   -4.8270   12.6570 C   0  0  0  0  0  0  0  0  0  0  0  0
   16.5150   -5.7470   11.4140 C   0  0  0  0  0  0  0  0  0  0  0  0
   18.2530   -4.0600   11.6460 C   0  0  0  0  0  0  0  0  0  0  0  0
   17.0690   -4.5110   11.0450 C   0  0  0  0  0  0  0  0  0  0  0  0
   18.9450   -6.8530   14.1870 C   0  0  0  0  0  0  0  0  0  0  0  0
   17.9800   -7.6380   15.0020 N   0  0  0  0  0  0  0  0  0  0  0  0
   17.8390   -9.0040   14.9640 C   0  0  0  0  0  0  0  0  0  0  0  0
   18.4000   -9.6850   14.1240 O   0  0  0  0  0  0  0  0  0  0  0  0
   16.5550   -8.9660   17.1680 C   0  0  0  0  0  0  0  0  0  0  0  0
   16.9540   -9.6330   15.9940 C   0  0  0  0  0  0  0  0  0  0  0  0
   16.5390  -10.9610   15.7770 C   0  0  0  0  0  0  0  0  0  0  0  0
   15.7000   -9.6100   18.0720 C   0  0  0  0  0  0  0  0  0  0  0  0
   15.7210  -11.6030   16.7140 C   0  0  0  0  0  0  0  0  0  0  0  0
   15.2980  -10.9250   17.8530 C   0  0  0  0  0  0  0  0  0  0  0  0
   17.0940   -7.7270   17.4700 O   0  0  0  0  0  0  0  0  0  0  0  0
   16.7640   -6.8740   18.6150 C   0  0  0  0  0  0  0  0  0  0  0  0
   15.5660   -5.9540   18.4260 C   0  0  0  0  0  0  0  0  0  0  0  0
   15.0540   -5.5250   19.4470 O   0  0  0  0  0  0  0  0  0  0  0  0
   15.1210   -5.7700   17.3100 O   0  5  0  0  0  0  0  0  0  0  0  0
   16.0380   -3.2350    9.6790 I   0  0  0  0  0  0  0  0  0  0  0  0
   17.5960   -6.2020   18.8280 H   0  0  0  0  0  0  0  0  0  0  0  0
   16.7120   -7.4650   12.7130 H   0  0  0  0  0  0  0  0  0  0  0  0
   19.7290   -4.4370   13.1740 H   0  0  0  0  0  0  0  0  0  0  0  0
   15.5830   -6.0890   10.9670 H   0  0  0  0  0  0  0  0  0  0  0  0
   18.6580   -3.0840   11.3790 H   0  0  0  0  0  0  0  0  0  0  0  0
   19.4880   -6.1660   14.8500 H   0  0  0  0  0  0  0  0  0  0  0  0
   17.4910   -7.2060   15.7820 H   0  0  0  0  0  0  0  0  0  0  0  0
   16.8530  -11.5010   14.8800 H   0  0  0  0  0  0  0  0  0  0  0  0
   15.3860   -9.1150   18.9770 H   0  0  0  0  0  0  0  0  0  0  0  0
   15.4150  -12.6360   16.5560 H   0  0  0  0  0  0  0  0  0  0  0  0
   16.5870   -7.4450   19.5260 H   0  0  0  0  0  0  0  0  0  0  0  0
   19.7010   -7.5370   13.7770 H   0  0  0  0  0  0  0  0  0  0  0  0
  1 17  1  0  0  0  0
  2  3  2  0  0  0  0
  2  5  1  0  0  0  0
  2 25  1  0  0  0  0
  3  4  1  0  0  0  0
  3  8  1  0  0  0  0
  4  6  2  0  0  0  0
  4 26  1  0  0  0  0
  5  7  2  0  0  0  0
  5 27  1  0  0  0  0
  6  7  1  0  0  0  0
  6 28  1  0  0  0  0
  7 23  1  0  0  0  0
  8  9  1  0  0  0  0
  8 29  1  0  0  0  0
  8 35  1  0  0  0  0
  9 10  1  0  0  0  0
  9 30  1  0  0  0  0
 10 11  2  0  0  0  0
 10 13  1  0  0  0  0
 12 13  2  0  0  0  0
 12 15  1  0  0  0  0
 12 18  1  0  0  0  0
 13 14  1  0  0  0  0
 14 16  2  0  0  0  0
 14 31  1  0  0  0  0
 15 17  2  0  0  0  0
 15 32  1  0  0  0  0
 16 17  1  0  0  0  0
 16 33  1  0  0  0  0
 18 19  1  0  0  0  0
 19 20  1  0  0  0  0
 19 24  1  0  0  0  0
 19 34  1  0  0  0  0
 20 21  2  0  0  0  0
 20 22  1  0  0  0  0
M  CHG  1  22  -1
M  END
>  <deltaG_kcalmol>
-9.36

>  <charge>
-1

>  <lm5_entropy_jk>
25.63780735381752

>  <number_of_rotatable_bonds>
7

$$$$
