2aqu_B.pdb
 OpenBabel11252210453D

103105  0  0  1  0  0  0  0  0999 V2000
    2.9480    1.2100   12.2930 C   0  0  1  0  0  0  0  0  0  0  0  0
    3.5890    1.9010   11.1540 N   0  0  0  0  0  0  0  0  0  0  0  0
    3.9530   -1.0460   12.3640 O   0  0  0  0  0  0  0  0  0  0  0  0
    4.3340   -2.9790   16.0550 N   0  0  0  0  0  0  0  0  0  0  0  0
    5.5180   -3.4400   16.6860 N   0  0  0  0  0  0  0  0  0  0  0  0
    4.7200    0.4910   13.8490 N   0  0  0  0  0  0  0  0  0  0  0  0
    7.0890   -6.3680   17.1380 N   0  0  0  0  0  0  0  0  0  0  0  0
    2.7000  -10.0580   17.4580 N   0  0  0  0  0  0  0  0  0  0  0  0
    3.6200    3.5960    9.6750 O   0  0  0  0  0  0  0  0  0  0  0  0
    7.4880   -8.3060   18.2090 O   0  0  0  0  0  0  0  0  0  0  0  0
    1.0880   -0.1350   13.2580 C   0  0  0  0  0  0  0  0  0  0  0  0
    8.8830   -4.6660   16.4180 C   0  0  0  0  0  0  0  0  0  0  0  0
    7.4260   -4.9430   16.9440 C   0  0  1  0  0  0  0  0  0  0  0  0
    5.7610   -0.3990   14.4070 C   0  0  2  0  0  0  0  0  0  0  0  0
    5.4900   -0.6690   15.9140 C   0  0  2  0  0  0  0  0  0  0  0  0
    3.0050   -9.3720   16.3160 C   0  0  0  0  0  0  0  0  0  0  0  0
    0.5500    1.8400   11.7880 C   0  0  0  0  0  0  0  0  0  0  0  0
    3.0320   -7.8930   16.4250 C   0  0  0  0  0  0  0  0  0  0  0  0
    3.0900   -5.0890   16.6130 C   0  0  0  0  0  0  0  0  0  0  0  0
    7.4600    0.5600   12.7980 C   0  0  0  0  0  0  0  0  0  0  0  0
    6.3540   -4.3480   15.9960 C   0  0  0  0  0  0  0  0  0  0  0  0
    7.4430   -6.9320   18.3740 C   0  0  0  0  0  0  0  0  0  0  0  0
    3.3210    3.2680   10.9910 C   0  0  0  0  0  0  0  0  0  0  0  0
    4.2300   -1.4840   16.2520 C   0  0  0  0  0  0  0  0  0  0  0  0
    3.1090   -3.5850   16.7290 C   0  0  0  0  0  0  0  0  0  0  0  0
    7.1650    0.2420   14.2370 C   0  0  0  0  0  0  0  0  0  0  0  0
    1.5070    0.6490   12.0010 C   0  0  0  0  0  0  0  0  0  0  0  0
    3.9170    0.1020   12.7790 C   0  0  0  0  0  0  0  0  0  0  0  0
    2.3770   -7.1050   15.4660 C   0  0  0  0  0  0  0  0  0  0  0  0
    3.7000   -7.2710   17.4940 C   0  0  0  0  0  0  0  0  0  0  0  0
    2.4070   -5.7120   15.5600 C   0  0  0  0  0  0  0  0  0  0  0  0
    3.7240   -5.8780   17.5860 C   0  0  0  0  0  0  0  0  0  0  0  0
    3.2760  -10.0360   15.1020 C   0  0  0  0  0  0  0  0  0  0  0  0
    7.2320    1.8580   12.3090 C   0  0  0  0  0  0  0  0  0  0  0  0
    7.9350   -0.4330   11.9270 C   0  0  0  0  0  0  0  0  0  0  0  0
    2.6600  -11.4150   17.4100 C   0  0  0  0  0  0  0  0  0  0  0  0
    3.2310  -11.4310   15.0680 C   0  0  0  0  0  0  0  0  0  0  0  0
    7.4470    2.1510   10.9610 C   0  0  0  0  0  0  0  0  0  0  0  0
    8.1490   -0.1330   10.5790 C   0  0  0  0  0  0  0  0  0  0  0  0
    2.9180  -12.1360   16.2330 C   0  0  0  0  0  0  0  0  0  0  0  0
    7.8930    1.1520   10.0900 C   0  0  0  0  0  0  0  0  0  0  0  0
    9.8780   -5.0140   17.5450 C   0  0  0  0  0  0  0  0  0  0  0  0
    9.1820   -5.5120   15.1720 C   0  0  0  0  0  0  0  0  0  0  0  0
    8.9620   -3.1670   16.0670 C   0  0  0  0  0  0  0  0  0  0  0  0
    5.2260    0.6060   16.5650 O   0  0  0  0  0  0  0  0  0  0  0  0
    1.4970   -0.2530   10.7590 C   0  0  0  0  0  0  0  0  0  0  0  0
    6.2730   -4.5440   14.8060 O   0  0  0  0  0  0  0  0  0  0  0  0
    7.5620   -9.1130   19.4140 C   0  0  0  0  0  0  0  0  0  0  0  0
    7.6140   -6.3470   19.4270 O   0  0  0  0  0  0  0  0  0  0  0  0
    3.6730    5.0060    9.3370 C   0  0  0  0  0  0  0  0  0  0  0  0
    2.9550    4.0750   11.8250 O   0  0  0  0  0  0  0  0  0  0  0  0
    2.8360    1.9610   13.1230 H   0  0  0  0  0  0  0  0  0  0  0  0
    3.7130    1.3370   10.2870 H   0  0  0  0  0  0  0  0  0  0  0  0
    5.5570   -3.3770   17.7290 H   0  0  0  0  0  0  0  0  0  0  0  0
    4.7440    1.4560   14.2020 H   0  0  0  0  0  0  0  0  0  0  0  0
    7.1470   -6.9720   16.2920 H   0  0  0  0  0  0  0  0  0  0  0  0
   -0.0030   -0.3370   13.2340 H   0  0  0  0  0  0  0  0  0  0  0  0
    1.6280   -1.1060   13.3120 H   0  0  0  0  0  0  0  0  0  0  0  0
    1.3150    0.4430   14.1740 H   0  0  0  0  0  0  0  0  0  0  0  0
    7.3340   -4.4480   17.9490 H   0  0  0  0  0  0  0  0  0  0  0  0
    5.7470   -1.3860   13.8700 H   0  0  0  0  0  0  0  0  0  0  0  0
    6.4010   -1.1120   16.3880 H   0  0  0  0  0  0  0  0  0  0  0  0
   -0.5020    1.4730   11.7350 H   0  0  0  0  0  0  0  0  0  0  0  0
    0.6130    2.5590   12.6290 H   0  0  0  0  0  0  0  0  0  0  0  0
    0.7740    2.3650   10.8360 H   0  0  0  0  0  0  0  0  0  0  0  0
    4.0160   -1.2450   17.3310 H   0  0  0  0  0  0  0  0  0  0  0  0
    3.3700   -1.1440   15.6200 H   0  0  0  0  0  0  0  0  0  0  0  0
    2.2210   -3.1430   16.2040 H   0  0  0  0  0  0  0  0  0  0  0  0
    3.0450   -3.2960   17.8160 H   0  0  0  0  0  0  0  0  0  0  0  0
    7.9310   -0.4530   14.6590 H   0  0  0  0  0  0  0  0  0  0  0  0
    7.2190    1.1740   14.8590 H   0  0  0  0  0  0  0  0  0  0  0  0
    1.8400   -7.5720   14.6420 H   0  0  0  0  0  0  0  0  0  0  0  0
    4.1990   -7.8690   18.2620 H   0  0  0  0  0  0  0  0  0  0  0  0
    1.8830   -5.1070   14.8200 H   0  0  0  0  0  0  0  0  0  0  0  0
    4.2370   -5.4010   18.4260 H   0  0  0  0  0  0  0  0  0  0  0  0
    3.5160   -9.4840   14.1930 H   0  0  0  0  0  0  0  0  0  0  0  0
    6.8850    2.6410   12.9870 H   0  0  0  0  0  0  0  0  0  0  0  0
    8.1420   -1.4340   12.3030 H   0  0  0  0  0  0  0  0  0  0  0  0
    2.4130  -11.9430   18.3460 H   0  0  0  0  0  0  0  0  0  0  0  0
    3.4360  -11.9710   14.1370 H   0  0  0  0  0  0  0  0  0  0  0  0
    7.2690    3.1620   10.5870 H   0  0  0  0  0  0  0  0  0  0  0  0
    8.5180   -0.9030    9.9040 H   0  0  0  0  0  0  0  0  0  0  0  0
    2.8760  -13.2290   16.2320 H   0  0  0  0  0  0  0  0  0  0  0  0
    8.0360    1.3790    9.0330 H   0  0  0  0  0  0  0  0  0  0  0  0
   10.8910   -4.6270   17.2920 H   0  0  0  0  0  0  0  0  0  0  0  0
    9.5630   -4.5540   18.5010 H   0  0  0  0  0  0  0  0  0  0  0  0
    9.9550   -6.1130   17.6770 H   0  0  0  0  0  0  0  0  0  0  0  0
   10.1440   -5.1910   14.7250 H   0  0  0  0  0  0  0  0  0  0  0  0
    9.2540   -6.5920   15.4170 H   0  0  0  0  0  0  0  0  0  0  0  0
    8.3580   -5.3750   14.4350 H   0  0  0  0  0  0  0  0  0  0  0  0
   10.0210   -2.8380   16.0580 H   0  0  0  0  0  0  0  0  0  0  0  0
    8.5260   -2.9730   15.0640 H   0  0  0  0  0  0  0  0  0  0  0  0
    8.4080   -2.5510   16.8060 H   0  0  0  0  0  0  0  0  0  0  0  0
    6.1190    0.8540   17.0120 H   0  0  0  0  0  0  0  0  0  0  0  0
    1.6970    0.3370    9.8410 H   0  0  0  0  0  0  0  0  0  0  0  0
    2.2800   -1.0410   10.8580 H   0  0  0  0  0  0  0  0  0  0  0  0
    0.5020   -0.7320   10.6520 H   0  0  0  0  0  0  0  0  0  0  0  0
    7.5830  -10.1450   18.9930 H   0  0  0  0  0  0  0  0  0  0  0  0
    8.4930   -8.8780   19.9690 H   0  0  0  0  0  0  0  0  0  0  0  0
    6.6570   -8.9310   20.0300 H   0  0  0  0  0  0  0  0  0  0  0  0
    3.9720    4.9660    8.2630 H   0  0  0  0  0  0  0  0  0  0  0  0
    2.6690    5.4620    9.4680 H   0  0  0  0  0  0  0  0  0  0  0  0
    4.4400    5.5110    9.9600 H   0  0  0  0  0  0  0  0  0  0  0  0
  1 27  1  0  0  0  0
  1 28  1  0  0  0  0
  1 52  1  1  0  0  0
  1  2  1  0  0  0  0
  2 23  1  0  0  0  0
  2 53  1  0  0  0  0
  3 28  2  0  0  0  0
  4  5  1  0  0  0  0
  4 24  1  0  0  0  0
  4 25  1  0  0  0  0
  5 54  1  0  0  0  0
  5 21  1  0  0  0  0
  6 55  1  0  0  0  0
  6 14  1  0  0  0  0
  6 28  1  0  0  0  0
  7 56  1  0  0  0  0
  7 13  1  0  0  0  0
  7 22  1  0  0  0  0
  8 16  2  0  0  0  0
  8 36  1  0  0  0  0
  9 23  1  0  0  0  0
  9 50  1  0  0  0  0
 10 22  1  0  0  0  0
 10 48  1  0  0  0  0
 11 57  1  0  0  0  0
 11 58  1  0  0  0  0
 11 59  1  0  0  0  0
 11 27  1  0  0  0  0
 12 13  1  0  0  0  0
 12 42  1  0  0  0  0
 12 43  1  0  0  0  0
 12 44  1  0  0  0  0
 13 60  1  1  0  0  0
 13 21  1  0  0  0  0
 14 61  1  6  0  0  0
 14 15  1  0  0  0  0
 14 26  1  0  0  0  0
 15 62  1  1  0  0  0
 15 24  1  0  0  0  0
 15 45  1  0  0  0  0
 16 18  1  0  0  0  0
 16 33  1  0  0  0  0
 17 63  1  0  0  0  0
 17 64  1  0  0  0  0
 17 65  1  0  0  0  0
 17 27  1  0  0  0  0
 18 29  2  0  0  0  0
 18 30  1  0  0  0  0
 19 25  1  0  0  0  0
 19 31  2  0  0  0  0
 19 32  1  0  0  0  0
 20 26  1  0  0  0  0
 20 34  2  0  0  0  0
 20 35  1  0  0  0  0
 21 47  2  0  0  0  0
 22 49  2  0  0  0  0
 23 51  2  0  0  0  0
 24 66  1  0  0  0  0
 24 67  1  0  0  0  0
 25 68  1  0  0  0  0
 25 69  1  0  0  0  0
 26 70  1  0  0  0  0
 26 71  1  0  0  0  0
 27 46  1  0  0  0  0
 29 72  1  0  0  0  0
 29 31  1  0  0  0  0
 30 73  1  0  0  0  0
 30 32  2  0  0  0  0
 31 74  1  0  0  0  0
 32 75  1  0  0  0  0
 33 76  1  0  0  0  0
 33 37  2  0  0  0  0
 34 77  1  0  0  0  0
 34 38  1  0  0  0  0
 35 78  1  0  0  0  0
 35 39  2  0  0  0  0
 36 79  1  0  0  0  0
 36 40  2  0  0  0  0
 37 80  1  0  0  0  0
 37 40  1  0  0  0  0
 38 81  1  0  0  0  0
 38 41  2  0  0  0  0
 39 82  1  0  0  0  0
 39 41  1  0  0  0  0
 40 83  1  0  0  0  0
 41 84  1  0  0  0  0
 42 85  1  0  0  0  0
 42 86  1  0  0  0  0
 42 87  1  0  0  0  0
 43 88  1  0  0  0  0
 43 89  1  0  0  0  0
 43 90  1  0  0  0  0
 44 91  1  0  0  0  0
 44 92  1  0  0  0  0
 44 93  1  0  0  0  0
 45 94  1  0  0  0  0
 46 95  1  0  0  0  0
 46 96  1  0  0  0  0
 46 97  1  0  0  0  0
 48 98  1  0  0  0  0
 48 99  1  0  0  0  0
 48100  1  0  0  0  0
 50101  1  0  0  0  0
 50102  1  0  0  0  0
 50103  1  0  0  0  0
M  END
>  <charge>
0

>  <KI_NM>
0.024

>  <number_of_rotatable_bonds>
22

>  <lm5_entropy_jk>
56.95019395789525

>  <ligand_crystal_conformation>
B

$$$$
