3S1H
 OpenBabel11252210453D

 43 45  0  0  1  0  0  0  0  0999 V2000
   65.8760  154.3350  -50.6020 N   0  0  0  0  0  0  0  0  0  0  0  0
   67.2450  153.3490  -52.1760 N   0  0  0  0  0  0  0  0  0  0  0  0
   64.5040  154.8000  -48.8020 N   0  0  0  0  0  0  0  0  0  0  0  0
   61.9420  153.4610  -42.9700 N   0  0  0  0  0  0  0  0  0  0  0  0
   69.2910  149.3950  -46.5560 C   0  0  0  0  0  0  0  0  0  0  0  0
   70.3300  149.8560  -47.3620 C   0  0  0  0  0  0  0  0  0  0  0  0
   70.0720  150.6040  -48.5210 C   0  0  0  0  0  0  0  0  0  0  0  0
   67.6920  150.3290  -48.1180 C   0  0  0  0  0  0  0  0  0  0  0  0
   67.9680  149.6040  -46.9510 C   0  0  0  0  0  0  0  0  0  0  0  0
   68.6220  148.3680  -44.3850 C   0  0  0  0  0  0  0  0  0  0  0  0
   68.7450  150.8820  -48.8730 C   0  0  0  0  0  0  0  0  0  0  0  0
   68.4640  151.7470  -50.0580 C   0  0  0  0  0  0  0  0  0  0  0  0
   67.4520  152.7850  -49.8860 C   0  0  0  0  0  0  0  0  0  0  0  0
   66.9230  153.5060  -50.9020 C   0  0  0  0  0  0  0  0  0  0  0  0
   65.6140  154.2170  -49.3150 C   0  0  0  0  0  0  0  0  0  0  0  0
   63.8030  154.6630  -47.6290 C   0  0  0  0  0  0  0  0  0  0  0  0
   63.7900  153.4660  -46.9160 C   0  0  0  0  0  0  0  0  0  0  0  0
   63.0090  153.3310  -45.7670 C   0  0  0  0  0  0  0  0  0  0  0  0
   62.2390  154.4240  -45.3460 C   0  0  0  0  0  0  0  0  0  0  0  0
   62.2350  155.6360  -46.0430 C   0  0  0  0  0  0  0  0  0  0  0  0
   63.0190  155.7270  -47.1920 C   0  0  0  0  0  0  0  0  0  0  0  0
   60.1270  153.2080  -44.3470 O   0  0  0  0  0  0  0  0  0  0  0  0
   60.7960  155.4250  -43.3020 O   0  0  0  0  0  0  0  0  0  0  0  0
   69.0420  151.5780  -51.1160 O   0  0  0  0  0  0  0  0  0  0  0  0
   69.6130  148.7690  -45.3690 O   0  0  0  0  0  0  0  0  0  0  0  0
   66.7460  153.2710  -48.3780 S   0  0  0  0  0  0  0  0  0  0  0  0
   61.1220  154.2120  -44.0370 S   0  0  0  0  0  0  0  0  0  0  0  0
   71.3420  149.6410  -47.0640 H   0  0  0  0  0  0  0  0  0  0  0  0
   67.0530  154.1030  -52.8250 H   0  0  0  0  0  0  0  0  0  0  0  0
   68.0680  152.7760  -52.3070 H   0  0  0  0  0  0  0  0  0  0  0  0
   70.8900  150.9920  -49.1320 H   0  0  0  0  0  0  0  0  0  0  0  0
   64.0170  155.3820  -49.4760 H   0  0  0  0  0  0  0  0  0  0  0  0
   66.6590  150.4900  -48.4190 H   0  0  0  0  0  0  0  0  0  0  0  0
   61.3500  152.6770  -43.2630 H   0  0  0  0  0  0  0  0  0  0  0  0
   61.3530  154.0540  -42.3910 H   0  0  0  0  0  0  0  0  0  0  0  0
   67.1460  149.2190  -46.3570 H   0  0  0  0  0  0  0  0  0  0  0  0
   69.1000  147.9470  -43.4880 H   0  0  0  0  0  0  0  0  0  0  0  0
   67.9520  147.6010  -44.7970 H   0  0  0  0  0  0  0  0  0  0  0  0
   68.0140  149.2260  -44.0620 H   0  0  0  0  0  0  0  0  0  0  0  0
   64.3470  152.6080  -47.2720 H   0  0  0  0  0  0  0  0  0  0  0  0
   63.0060  152.3750  -45.2370 H   0  0  0  0  0  0  0  0  0  0  0  0
   61.6130  156.4890  -45.7440 H   0  0  0  0  0  0  0  0  0  0  0  0
   62.9900  156.6370  -47.7740 H   0  0  0  0  0  0  0  0  0  0  0  0
  1 14  1  0  0  0  0
  1 15  2  0  0  0  0
  2 14  1  0  0  0  0
  2 29  1  0  0  0  0
  2 30  1  0  0  0  0
  3 15  1  0  0  0  0
  3 16  1  0  0  0  0
  3 32  1  0  0  0  0
  4 27  1  0  0  0  0
  4 34  1  0  0  0  0
  4 35  1  0  0  0  0
  5  6  2  0  0  0  0
  5  9  1  0  0  0  0
  5 25  1  0  0  0  0
  6  7  1  0  0  0  0
  6 28  1  0  0  0  0
  7 11  2  0  0  0  0
  7 31  1  0  0  0  0
  8  9  2  0  0  0  0
  8 11  1  0  0  0  0
  8 33  1  0  0  0  0
  9 36  1  0  0  0  0
 10 25  1  0  0  0  0
 10 37  1  0  0  0  0
 10 38  1  0  0  0  0
 10 39  1  0  0  0  0
 12 11  1  0  0  0  0
 12 13  1  0  0  0  0
 12 24  2  0  0  0  0
 13 14  2  0  0  0  0
 13 26  1  0  0  0  0
 15 26  1  0  0  0  0
 16 17  2  0  0  0  0
 16 21  1  0  0  0  0
 17 18  1  0  0  0  0
 17 40  1  0  0  0  0
 18 19  2  0  0  0  0
 18 41  1  0  0  0  0
 19 20  1  0  0  0  0
 19 27  1  0  0  0  0
 20 21  2  0  0  0  0
 20 42  1  0  0  0  0
 21 43  1  0  0  0  0
 22 27  2  0  0  0  0
 23 27  2  0  0  0  0
M  END
>  <lm5_entropy_jk>
33.50945403317048

>  <number_of_rotatable_bonds>
6

>  <IC50_NM>
17000

>  <charge>
0

$$$$
