2OXD
 OpenBabel11252210453D

 16 17  0  0  1  0  0  0  0  0999 V2000
   21.2500    8.4590   20.5300 C   0  0  0  0  0  0  0  0  0  0  0  0
   21.5260    8.8340   19.2020 C   0  0  0  0  0  0  0  0  0  0  0  0
   22.4590    8.1170   18.4360 C   0  0  0  0  0  0  0  0  0  0  0  0
   21.8490    7.3270   21.1000 C   0  0  0  0  0  0  0  0  0  0  0  0
   23.9710    6.0580   18.4730 N   0  0  0  0  0  0  0  0  0  0  0  0
   22.7140    6.5700   20.3220 C   0  0  0  0  0  0  0  0  0  0  0  0
   23.0480    6.9860   18.9890 C   0  0  0  0  0  0  0  0  0  0  0  0
   24.8350    4.0070   19.2950 O   0  0  0  0  0  0  0  0  0  0  0  0
   24.1520    4.9940   19.4280 C   0  0  0  0  0  0  0  0  0  0  0  0
   23.4190    5.3850   20.6030 N   0  0  0  0  0  0  0  0  0  0  0  0
   21.5740    6.6910   22.8550 Br  0  0  0  0  0  0  0  0  0  0  0  0
   20.0450    9.4530   21.6000 Br  0  0  0  0  0  0  0  0  0  0  0  0
   23.0120    8.5580   16.6870 Br  0  0  0  0  0  0  0  0  0  0  0  0
   20.6290   10.3030   18.4020 Br  0  0  0  0  0  0  0  0  0  0  0  0
   24.3280    6.0690   17.5160 H   0  0  0  0  0  0  0  0  0  0  0  0
   23.2080    4.7730   21.4000 H   0  0  0  0  0  0  0  0  0  0  0  0
  1  2  2  0  0  0  0
  1  4  1  0  0  0  0
  1 12  1  0  0  0  0
  2  3  1  0  0  0  0
  2 14  1  0  0  0  0
  3  7  2  0  0  0  0
  3 13  1  0  0  0  0
  4  6  2  0  0  0  0
  4 11  1  0  0  0  0
  5  7  1  0  0  0  0
  5  9  1  0  0  0  0
  5 15  1  0  0  0  0
  6  7  1  0  0  0  0
  6 10  1  0  0  0  0
  8  9  2  0  0  0  0
  9 10  1  0  0  0  0
 10 16  1  0  0  0  0
M  END
>  <charge>
0

>  <Ki_NM>
150

>  <number_of_rotatable_bonds>
0

>  <lm5_entropy_jk>
7.2278

$$$$
