1HXW
 OpenBabel11252210453D

 98101  0  0  1  0  0  0  0  0999 V2000
    0.3810    2.5420   11.9050 C   0  0  0  0  0  0  0  0  0  0  0  0
    1.3390    1.8740   11.1800 C   0  0  0  0  0  0  0  0  0  0  0  0
    1.8600    2.7620    9.7780 S   0  0  0  0  0  0  0  0  0  0  0  0
    0.7330    4.0070   10.2460 C   0  0  0  0  0  0  0  0  0  0  0  0
    0.0520    3.7700   11.3600 N   0  0  0  0  0  0  0  0  0  0  0  0
    1.8880    0.5250   11.5730 C   0  0  0  0  0  0  0  0  0  0  0  0
    2.7830    0.7100   12.6930 O   0  0  0  0  0  0  0  0  0  0  0  0
    3.6140   -0.3080   13.0470 C   0  0  0  0  0  0  0  0  0  0  0  0
    4.4270    0.1120   14.0440 N   0  0  0  0  0  0  0  0  0  0  0  0
    5.5610   -0.6450   14.6030 C   0  0  2  0  0  0  0  0  0  0  0  0
    5.3760   -0.9320   16.1290 C   0  0  2  0  0  0  0  0  0  0  0  0
    4.1910   -1.8440   16.5010 C   0  0  0  0  0  0  0  0  0  0  0  0
    4.2750   -3.3290   16.1280 C   0  0  2  0  0  0  0  0  0  0  0  0
    6.6440   -4.0880   15.8830 C   0  0  0  0  0  0  0  0  0  0  0  0
    7.7420   -4.8900   16.6280 C   0  0  1  0  0  0  0  0  0  0  0  0
    7.2070   -6.2230   17.0570 N   0  0  0  0  0  0  0  0  0  0  0  0
    7.0610   -6.6460   18.3500 C   0  0  0  0  0  0  0  0  0  0  0  0
    3.6370   -1.4220   12.5520 O   0  0  0  0  0  0  0  0  0  0  0  0
    6.8700    0.1540   14.3410 C   0  0  0  0  0  0  0  0  0  0  0  0
    7.1250    0.4690   12.8790 C   0  0  0  0  0  0  0  0  0  0  0  0
    7.7590   -0.4700   12.0550 C   0  0  0  0  0  0  0  0  0  0  0  0
    8.0130   -0.1690   10.7050 C   0  0  0  0  0  0  0  0  0  0  0  0
    7.6240    1.0730   10.1770 C   0  0  0  0  0  0  0  0  0  0  0  0
    6.9920    2.0180   11.0000 C   0  0  0  0  0  0  0  0  0  0  0  0
    6.7480    1.7140   12.3500 C   0  0  0  0  0  0  0  0  0  0  0  0
    5.1240    0.2960   16.7950 O   0  0  0  0  0  0  0  0  0  0  0  0
    3.1090   -4.0440   16.8200 C   0  0  0  0  0  0  0  0  0  0  0  0
    2.8520   -5.4260   16.2710 C   0  0  0  0  0  0  0  0  0  0  0  0
    3.1950   -6.5700   17.0030 C   0  0  0  0  0  0  0  0  0  0  0  0
    2.8840   -7.8470   16.5110 C   0  0  0  0  0  0  0  0  0  0  0  0
    2.2520   -7.9810   15.2680 C   0  0  0  0  0  0  0  0  0  0  0  0
    1.9220   -6.8360   14.5260 C   0  0  0  0  0  0  0  0  0  0  0  0
    2.2190   -5.5620   15.0330 C   0  0  0  0  0  0  0  0  0  0  0  0
    5.5010   -3.9210   16.6170 N   0  0  0  0  0  0  0  0  0  0  0  0
    6.7370   -3.6630   14.7410 O   0  0  0  0  0  0  0  0  0  0  0  0
    9.0910   -5.0310   15.8700 C   0  0  0  0  0  0  0  0  0  0  0  0
    9.8010   -3.6770   15.6990 C   0  0  0  0  0  0  0  0  0  0  0  0
   10.0610   -5.9180   16.6670 C   0  0  0  0  0  0  0  0  0  0  0  0
    6.4840   -7.9190   18.4710 N   0  0  0  0  0  0  0  0  0  0  0  0
    6.0840   -8.4650   19.7930 C   0  0  0  0  0  0  0  0  0  0  0  0
    7.3940   -5.9660   19.3060 O   0  0  0  0  0  0  0  0  0  0  0  0
    4.6040   -8.3710   20.0320 C   0  0  0  0  0  0  0  0  0  0  0  0
    4.0290   -7.2330   20.5330 C   0  0  0  0  0  0  0  0  0  0  0  0
    2.2980   -7.4040   20.6190 S   0  0  0  0  0  0  0  0  0  0  0  0
    2.4850   -9.0270   19.9790 C   0  0  0  0  0  0  0  0  0  0  0  0
    3.7350   -9.3930   19.7300 N   0  0  0  0  0  0  0  0  0  0  0  0
    1.2730   -9.8890   19.6270 C   0  0  0  0  0  0  0  0  0  0  0  0
    0.2870  -10.0400   20.8100 C   0  0  0  0  0  0  0  0  0  0  0  0
    1.6280  -11.3260   19.1680 C   0  0  0  0  0  0  0  0  0  0  0  0
    6.1330   -8.7980   17.3190 C   0  0  0  0  0  0  0  0  0  0  0  0
   -0.1070    2.2020   12.8140 H   0  0  0  0  0  0  0  0  0  0  0  0
    0.6410    4.8930    9.6240 H   0  0  0  0  0  0  0  0  0  0  0  0
    2.4290    0.0910   10.7170 H   0  0  0  0  0  0  0  0  0  0  0  0
    1.0750   -0.1700   11.8260 H   0  0  0  0  0  0  0  0  0  0  0  0
    4.2630    1.0530   14.3580 H   0  0  0  0  0  0  0  0  0  0  0  0
    5.6420   -1.6160   14.0930 H   0  0  0  0  0  0  0  0  0  0  0  0
    6.3090   -1.3810   16.5130 H   0  0  0  0  0  0  0  0  0  0  0  0
    3.2740   -1.4170   16.0840 H   0  0  0  0  0  0  0  0  0  0  0  0
    4.0780   -1.7910   17.5880 H   0  0  0  0  0  0  0  0  0  0  0  0
    4.2070   -3.4550   15.0310 H   0  0  0  0  0  0  0  0  0  0  0  0
    7.9400   -4.2950   17.5250 H   0  0  0  0  0  0  0  0  0  0  0  0
    6.9700   -6.9150   16.3530 H   0  0  0  0  0  0  0  0  0  0  0  0
    7.7200   -0.4020   14.7530 H   0  0  0  0  0  0  0  0  0  0  0  0
    6.8540    1.0840   14.9220 H   0  0  0  0  0  0  0  0  0  0  0  0
    8.0590   -1.4300   12.4670 H   0  0  0  0  0  0  0  0  0  0  0  0
    8.5080   -0.8990   10.0690 H   0  0  0  0  0  0  0  0  0  0  0  0
    7.8100    1.3060    9.1290 H   0  0  0  0  0  0  0  0  0  0  0  0
    6.6920    2.9850   10.5940 H   0  0  0  0  0  0  0  0  0  0  0  0
    6.2590    2.4470   12.9890 H   0  0  0  0  0  0  0  0  0  0  0  0
    6.0100    0.5440   17.1730 H   0  0  0  0  0  0  0  0  0  0  0  0
    2.1920   -3.4560   16.7150 H   0  0  0  0  0  0  0  0  0  0  0  0
    3.2900   -4.0950   17.9010 H   0  0  0  0  0  0  0  0  0  0  0  0
    3.6950   -6.4680   17.9610 H   0  0  0  0  0  0  0  0  0  0  0  0
    3.1400   -8.7300   17.0940 H   0  0  0  0  0  0  0  0  0  0  0  0
    2.0310   -8.9730   14.8810 H   0  0  0  0  0  0  0  0  0  0  0  0
    1.4500   -6.9290   13.5520 H   0  0  0  0  0  0  0  0  0  0  0  0
    1.9490   -4.6720   14.4750 H   0  0  0  0  0  0  0  0  0  0  0  0
    5.4980   -4.3640   17.5260 H   0  0  0  0  0  0  0  0  0  0  0  0
    8.8870   -5.4820   14.8830 H   0  0  0  0  0  0  0  0  0  0  0  0
   10.6820   -3.7790   15.0560 H   0  0  0  0  0  0  0  0  0  0  0  0
    9.1440   -2.9410   15.2220 H   0  0  0  0  0  0  0  0  0  0  0  0
   10.1310   -3.2680   16.6610 H   0  0  0  0  0  0  0  0  0  0  0  0
   11.0830   -5.8460   16.2930 H   0  0  0  0  0  0  0  0  0  0  0  0
   10.0740   -5.6380   17.7270 H   0  0  0  0  0  0  0  0  0  0  0  0
    9.7580   -6.9710   16.6080 H   0  0  0  0  0  0  0  0  0  0  0  0
    6.5860   -7.9010   20.5820 H   0  0  0  0  0  0  0  0  0  0  0  0
    6.4100   -9.5080   19.8950 H   0  0  0  0  0  0  0  0  0  0  0  0
    4.5120   -6.3050   20.8210 H   0  0  0  0  0  0  0  0  0  0  0  0
    0.7660   -9.3750   18.7930 H   0  0  0  0  0  0  0  0  0  0  0  0
   -0.5910  -10.6380   20.5330 H   0  0  0  0  0  0  0  0  0  0  0  0
    0.7670  -10.5280   21.6680 H   0  0  0  0  0  0  0  0  0  0  0  0
   -0.0830   -9.0630   21.1500 H   0  0  0  0  0  0  0  0  0  0  0  0
    2.1600  -11.8780   19.9540 H   0  0  0  0  0  0  0  0  0  0  0  0
    0.7320  -11.9020   18.8980 H   0  0  0  0  0  0  0  0  0  0  0  0
    2.2800  -11.3070   18.2840 H   0  0  0  0  0  0  0  0  0  0  0  0
    5.5430   -8.2380   16.5800 H   0  0  0  0  0  0  0  0  0  0  0  0
    7.0450   -9.1700   16.8350 H   0  0  0  0  0  0  0  0  0  0  0  0
    5.5330   -9.6610   17.6400 H   0  0  0  0  0  0  0  0  0  0  0  0
  1  2  2  0  0  0  0
  1  5  1  0  0  0  0
  1 51  1  0  0  0  0
  2  3  1  0  0  0  0
  2  6  1  0  0  0  0
  3  4  1  0  0  0  0
  4  5  2  0  0  0  0
  4 52  1  0  0  0  0
  6  7  1  0  0  0  0
  6 53  1  0  0  0  0
  6 54  1  0  0  0  0
  7  8  1  0  0  0  0
  8  9  1  0  0  0  0
  8 18  2  0  0  0  0
  9 10  1  0  0  0  0
  9 55  1  0  0  0  0
 10 11  1  0  0  0  0
 10 19  1  0  0  0  0
 10 56  1  6  0  0  0
 11 12  1  0  0  0  0
 11 26  1  0  0  0  0
 11 57  1  1  0  0  0
 12 13  1  0  0  0  0
 12 58  1  0  0  0  0
 12 59  1  0  0  0  0
 13 27  1  0  0  0  0
 13 34  1  0  0  0  0
 13 60  1  6  0  0  0
 14 15  1  0  0  0  0
 14 34  1  0  0  0  0
 14 35  2  0  0  0  0
 15 16  1  0  0  0  0
 15 36  1  0  0  0  0
 15 61  1  1  0  0  0
 16 17  1  0  0  0  0
 16 62  1  0  0  0  0
 17 39  1  0  0  0  0
 17 41  2  0  0  0  0
 19 20  1  0  0  0  0
 19 63  1  0  0  0  0
 19 64  1  0  0  0  0
 20 21  2  0  0  0  0
 20 25  1  0  0  0  0
 21 22  1  0  0  0  0
 21 65  1  0  0  0  0
 22 23  2  0  0  0  0
 22 66  1  0  0  0  0
 23 24  1  0  0  0  0
 23 67  1  0  0  0  0
 24 25  2  0  0  0  0
 24 68  1  0  0  0  0
 25 69  1  0  0  0  0
 26 70  1  0  0  0  0
 27 28  1  0  0  0  0
 27 71  1  0  0  0  0
 27 72  1  0  0  0  0
 28 29  2  0  0  0  0
 28 33  1  0  0  0  0
 29 30  1  0  0  0  0
 29 73  1  0  0  0  0
 30 31  2  0  0  0  0
 30 74  1  0  0  0  0
 31 32  1  0  0  0  0
 31 75  1  0  0  0  0
 32 33  2  0  0  0  0
 32 76  1  0  0  0  0
 33 77  1  0  0  0  0
 34 78  1  0  0  0  0
 36 37  1  0  0  0  0
 36 38  1  0  0  0  0
 36 79  1  0  0  0  0
 37 80  1  0  0  0  0
 37 81  1  0  0  0  0
 37 82  1  0  0  0  0
 38 83  1  0  0  0  0
 38 84  1  0  0  0  0
 38 85  1  0  0  0  0
 39 40  1  0  0  0  0
 39 50  1  0  0  0  0
 40 42  1  0  0  0  0
 40 86  1  0  0  0  0
 40 87  1  0  0  0  0
 42 43  2  0  0  0  0
 42 46  1  0  0  0  0
 43 44  1  0  0  0  0
 43 88  1  0  0  0  0
 44 45  1  0  0  0  0
 45 46  2  0  0  0  0
 45 47  1  0  0  0  0
 47 48  1  0  0  0  0
 47 49  1  0  0  0  0
 47 89  1  0  0  0  0
 48 90  1  0  0  0  0
 48 91  1  0  0  0  0
 48 92  1  0  0  0  0
 49 93  1  0  0  0  0
 49 94  1  0  0  0  0
 49 95  1  0  0  0  0
 50 96  1  0  0  0  0
 50 97  1  0  0  0  0
 50 98  1  0  0  0  0
M  END
>  <charge>
0

>  <KI_NM>
0.015

>  <number_of_rotatable_bonds>
22

>  <lm5_entropy_jk>
52.938673341193955

>  <ligand_crystal_conformation>
A

$$$$
