3NX7
 OpenBabel11252210453D

 36 36  0  0  0  0  0  0  0  0999 V2000
    5.5460   25.5570    4.6000 C   0  0  0  0  0  0  0  0  0  0  0  0
    8.6340   23.8250    1.3620 N   0  0  0  0  0  0  0  0  0  0  0  0
    6.9390   24.8010    0.1910 O   0  0  0  0  0  0  0  0  0  0  0  0
    7.9270   26.6350    3.9250 S   0  0  0  0  0  0  0  0  0  0  0  0
    4.7170   24.5180    5.0170 C   0  0  0  0  0  0  0  0  0  0  0  0
    7.6850   26.9060    2.2330 N   0  0  0  0  0  0  0  0  0  0  0  0
    8.1650   22.6430    0.7500 O   0  0  0  0  0  0  0  0  0  0  0  0
    6.8930   25.3270    4.2820 C   0  0  0  0  0  0  0  0  0  0  0  0
    7.4670   27.8590    4.5930 O   0  0  0  0  0  0  0  0  0  0  0  0
    5.2540   23.2230    5.1030 C   0  0  0  0  0  0  0  0  0  0  0  0
    9.3170   26.2770    4.1700 O   0  0  0  0  0  0  0  0  0  0  0  0
    7.3810   24.0040    4.2680 C   0  0  0  0  0  0  0  0  0  0  0  0
    4.6290   22.1300    5.6230 O   0  0  0  0  0  0  0  0  0  0  0  0
    8.0430   29.4080    1.8290 C   0  0  0  0  0  0  0  0  0  0  0  0
    7.9380   30.1440    3.0500 O   0  0  0  0  0  0  0  0  0  0  0  0
    6.5690   22.9510    4.6570 C   0  0  0  0  0  0  0  0  0  0  0  0
    7.0890   28.1920    1.7860 C   0  0  0  0  0  0  0  0  0  0  0  0
    7.9710   24.9670    0.8150 C   0  0  0  0  0  0  0  0  0  0  0  0
    8.6220   26.2780    1.2820 C   0  0  0  0  0  0  0  0  0  0  0  0
    3.2350   22.2250    6.0260 C   0  0  0  0  0  0  0  0  0  0  0  0
    5.1240   26.5660    4.5300 H   0  0  0  0  0  0  0  0  0  0  0  0
    9.6770   23.7780    1.4320 H   0  0  0  0  0  0  0  0  0  0  0  0
    3.6730   24.7180    5.2490 H   0  0  0  0  0  0  0  0  0  0  0  0
    8.3940   21.9020    1.5120 H   0  0  0  0  0  0  0  0  0  0  0  0
    8.4080   23.7870    3.9400 H   0  0  0  0  0  0  0  0  0  0  0  0
    9.0960   29.0840    1.6820 H   0  0  0  0  0  0  0  0  0  0  0  0
    7.7530   30.1510    1.0450 H   0  0  0  0  0  0  0  0  0  0  0  0
    7.9640   29.4920    3.8180 H   0  0  0  0  0  0  0  0  0  0  0  0
    6.9280   21.9210    4.5970 H   0  0  0  0  0  0  0  0  0  0  0  0
    6.7280   28.0670    0.7290 H   0  0  0  0  0  0  0  0  0  0  0  0
    6.1950   28.3990    2.4330 H   0  0  0  0  0  0  0  0  0  0  0  0
    8.8090   26.9220    0.3730 H   0  0  0  0  0  0  0  0  0  0  0  0
    9.6320   26.0890    1.7490 H   0  0  0  0  0  0  0  0  0  0  0  0
    3.0410   21.1730    6.3470 H   0  0  0  0  0  0  0  0  0  0  0  0
    2.6080   22.5070    5.1530 H   0  0  0  0  0  0  0  0  0  0  0  0
    3.1300   22.9370    6.8700 H   0  0  0  0  0  0  0  0  0  0  0  0
  1  8  2  0  0  0  0
  1  5  1  0  0  0  0
  1 21  1  0  0  0  0
  2  7  1  0  0  0  0
  2 18  1  0  0  0  0
  2 22  1  0  0  0  0
  3 18  2  0  0  0  0
  4  6  1  0  0  0  0
  4 11  2  0  0  0  0
  4  8  1  0  0  0  0
  4  9  2  0  0  0  0
  5 10  2  0  0  0  0
  5 23  1  0  0  0  0
  6 19  1  0  0  0  0
  6 17  1  0  0  0  0
  7 24  1  0  0  0  0
  8 12  1  0  0  0  0
 10 16  1  0  0  0  0
 10 13  1  0  0  0  0
 12 16  2  0  0  0  0
 12 25  1  0  0  0  0
 13 20  1  0  0  0  0
 14 15  1  0  0  0  0
 14 17  1  0  0  0  0
 14 26  1  0  0  0  0
 14 27  1  0  0  0  0
 15 28  1  0  0  0  0
 16 29  1  0  0  0  0
 17 30  1  0  0  0  0
 17 31  1  0  0  0  0
 18 19  1  0  0  0  0
 19 32  1  0  0  0  0
 19 33  1  0  0  0  0
 20 34  1  0  0  0  0
 20 35  1  0  0  0  0
 20 36  1  0  0  0  0
M  END
>  <lm5_entropy_jk>
31.710712665173276

>  <number_of_rotatable_bonds>
8

>  <deltaG_kcalmol>
-11.09

>  <charge>
0

$$$$
