1b_1k1i_var1.pdb
 OpenBabel11252210453D

 65 68  0  0  1  0  0  0  0  0999 V2000
   -0.3090   22.7180   16.6700 C   0  0  0  0  0  0  0  0  0  0  0  0
   -0.5510   21.9010   15.5890 C   0  0  0  0  0  0  0  0  0  0  0  0
    0.5080   21.5590   14.6980 C   0  0  0  0  0  0  0  0  0  0  0  0
    1.7780   22.0380   14.9090 C   0  0  0  0  0  0  0  0  0  0  0  0
    3.3740   23.4010   16.2740 C   0  0  0  0  0  0  0  0  0  0  0  0
    3.6060   24.2190   17.3500 C   0  0  0  0  0  0  0  0  0  0  0  0
    2.5420   24.5720   18.2340 C   0  0  0  0  0  0  0  0  0  0  0  0
    1.2750   24.0950   18.0210 C   0  0  0  0  0  0  0  0  0  0  0  0
    1.0020   23.2380   16.9050 C   0  0  0  0  0  0  0  0  0  0  0  0
    2.0600   22.8900   16.0220 C   0  0  0  0  0  0  0  0  0  0  0  0
   -2.1150   21.2070   15.3150 S   0  0  0  0  0  0  0  0  0  0  0  0
   -2.1690   13.8590   15.0290 C   0  0  0  0  0  0  0  0  0  0  0  0
   -1.9110   19.6070   15.9160 N   0  0  0  0  0  0  0  0  0  0  0  0
   -1.8160   19.2460   17.3300 C   0  0  1  0  0  0  0  0  0  0  0  0
   -2.4050   21.0150   13.8930 O   0  0  0  0  0  0  0  0  0  0  0  0
   -3.1470   21.9110   16.0740 O   0  0  0  0  0  0  0  0  0  0  0  0
   -2.7830   18.0810   17.6940 C   0  0  0  0  0  0  0  0  0  0  0  0
   -0.3600   18.7990   17.6540 C   0  0  0  0  0  0  0  0  0  0  0  0
    0.3030   18.1670   16.8420 O   0  0  0  0  0  0  0  0  0  0  0  0
    2.1040   20.5800   20.4890 C   0  0  0  0  0  0  0  0  0  0  0  0
   -1.6990   12.5850   14.8810 N   0  3  0  0  0  0  0  0  0  0  0  0
   -2.8430   14.3640   13.9540 N   0  0  0  0  0  0  0  0  0  0  0  0
   -1.9090   14.6480   16.2510 C   0  0  0  0  0  0  0  0  0  0  0  0
   -1.2470   14.0630   17.3490 C   0  0  0  0  0  0  0  0  0  0  0  0
   -1.0540   14.7930   18.5220 C   0  0  0  0  0  0  0  0  0  0  0  0
   -1.5350   16.0980   18.6310 C   0  0  0  0  0  0  0  0  0  0  0  0
   -2.2130   16.6970   17.5540 C   0  0  0  0  0  0  0  0  0  0  0  0
   -2.3730   15.9740   16.3670 C   0  0  0  0  0  0  0  0  0  0  0  0
   -0.3370   19.9970   19.9200 C   0  0  1  0  0  0  0  0  0  0  0  0
    0.7050   21.1130   20.1560 C   0  0  0  0  0  0  0  0  0  0  0  0
    2.5560   19.5360   19.4600 C   0  0  0  0  0  0  0  0  0  0  0  0
    1.5050   18.4330   19.2800 C   0  0  0  0  0  0  0  0  0  0  0  0
    0.1520   18.9880   18.9500 N   0  0  0  0  0  0  0  0  0  0  0  0
   -0.6830   19.2890   21.2410 C   0  0  0  0  0  0  0  0  0  0  0  0
   -0.3840   19.5670   22.3770 O   0  0  0  0  0  0  0  0  0  0  0  0
   -1.5260   18.2240   21.0050 O   0  0  0  0  0  0  0  0  0  0  0  0
   -1.7240   17.6890   21.8840 H   0  0  0  0  0  0  0  0  0  0  0  0
    1.3940   17.8360   20.2220 H   0  0  0  0  0  0  0  0  0  0  0  0
   -1.0980   22.9950   17.3850 H   0  0  0  0  0  0  0  0  0  0  0  0
    0.3120   20.9050   13.8390 H   0  0  0  0  0  0  0  0  0  0  0  0
    2.5960   21.7730   14.2290 H   0  0  0  0  0  0  0  0  0  0  0  0
    4.1880   23.1250   15.5940 H   0  0  0  0  0  0  0  0  0  0  0  0
    4.6090   24.6140   17.5530 H   0  0  0  0  0  0  0  0  0  0  0  0
    2.7590   25.2250   19.0870 H   0  0  0  0  0  0  0  0  0  0  0  0
    0.4550   24.3590   18.6990 H   0  0  0  0  0  0  0  0  0  0  0  0
   -1.7650   18.8120   15.2580 H   0  0  0  0  0  0  0  0  0  0  0  0
   -2.1270   20.1400   17.9390 H   0  0  0  0  0  0  0  0  0  0  0  0
   -3.6940   18.1790   17.0380 H   0  0  0  0  0  0  0  0  0  0  0  0
    2.1120   20.1320   21.5100 H   0  0  0  0  0  0  0  0  0  0  0  0
   -1.1760   12.0860   15.6290 H   0  0  0  0  0  0  0  0  0  0  0  0
   -3.1610   13.7090   13.1940 H   0  0  0  0  0  0  0  0  0  0  0  0
   -0.8920   13.0310   17.3220 H   0  0  0  0  0  0  0  0  0  0  0  0
   -0.5360   14.3270   19.3680 H   0  0  0  0  0  0  0  0  0  0  0  0
   -1.3810   16.6670   19.5610 H   0  0  0  0  0  0  0  0  0  0  0  0
   -2.8690   16.4740   15.5350 H   0  0  0  0  0  0  0  0  0  0  0  0
   -1.2950   20.4830   19.5720 H   0  0  0  0  0  0  0  0  0  0  0  0
    0.7650   21.7250   19.2190 H   0  0  0  0  0  0  0  0  0  0  0  0
    3.5140   19.0680   19.7960 H   0  0  0  0  0  0  0  0  0  0  0  0
    1.8220   17.7450   18.4580 H   0  0  0  0  0  0  0  0  0  0  0  0
   -3.1300   18.2290   18.7520 H   0  0  0  0  0  0  0  0  0  0  0  0
    2.8250   21.4370   20.4830 H   0  0  0  0  0  0  0  0  0  0  0  0
   -2.1040   11.9500   14.1540 H   0  0  0  0  0  0  0  0  0  0  0  0
   -3.2500   15.3180   13.9430 H   0  0  0  0  0  0  0  0  0  0  0  0
    0.3500   21.7890   20.9760 H   0  0  0  0  0  0  0  0  0  0  0  0
    2.7330   20.0380   18.4780 H   0  0  0  0  0  0  0  0  0  0  0  0
  1  2  2  0  0  0  0
  1  9  1  0  0  0  0
  1 39  1  0  0  0  0
  2  3  1  0  0  0  0
  2 11  1  0  0  0  0
  3  4  2  0  0  0  0
  3 40  1  0  0  0  0
  4 10  1  0  0  0  0
  4 41  1  0  0  0  0
  5  6  2  0  0  0  0
  5 10  1  0  0  0  0
  5 42  1  0  0  0  0
  6  7  1  0  0  0  0
  6 43  1  0  0  0  0
  7  8  2  0  0  0  0
  7 44  1  0  0  0  0
  8  9  1  0  0  0  0
  8 45  1  0  0  0  0
  9 10  2  0  0  0  0
 11 13  1  0  0  0  0
 11 15  2  0  0  0  0
 11 16  2  0  0  0  0
 12 21  2  0  0  0  0
 12 22  1  0  0  0  0
 12 23  1  0  0  0  0
 13 14  1  0  0  0  0
 13 46  1  0  0  0  0
 14 17  1  0  0  0  0
 14 18  1  0  0  0  0
 14 47  1  1  0  0  0
 17 27  1  0  0  0  0
 17 48  1  0  0  0  0
 17 60  1  0  0  0  0
 18 19  2  0  0  0  0
 18 33  1  0  0  0  0
 20 30  1  0  0  0  0
 20 31  1  0  0  0  0
 20 49  1  0  0  0  0
 20 61  1  0  0  0  0
 21 50  1  0  0  0  0
 21 62  1  0  0  0  0
 22 51  1  0  0  0  0
 22 63  1  0  0  0  0
 23 24  2  0  0  0  0
 23 28  1  0  0  0  0
 24 25  1  0  0  0  0
 24 52  1  0  0  0  0
 25 26  2  0  0  0  0
 25 53  1  0  0  0  0
 26 27  1  0  0  0  0
 26 54  1  0  0  0  0
 27 28  2  0  0  0  0
 28 55  1  0  0  0  0
 29 30  1  0  0  0  0
 29 33  1  0  0  0  0
 29 34  1  0  0  0  0
 29 56  1  6  0  0  0
 30 57  1  0  0  0  0
 30 64  1  0  0  0  0
 31 32  1  0  0  0  0
 31 58  1  0  0  0  0
 31 65  1  0  0  0  0
 32 33  1  0  0  0  0
 32 38  1  0  0  0  0
 32 59  1  0  0  0  0
 34 35  2  0  0  0  0
 34 36  1  0  0  0  0
 36 37  1  0  0  0  0
M  CHG  1  21   1
M  END
>  <penalty_kcalmol>
15.08

>  <protonation_change>
deprotonated_in_solution

>  <protonation_site>
37

>  <protonation_pKa>
3.21

>  <protonation_pKa_method>
experiment

>  <experiment_pH>
7.8

>  <protonated_energy_kcalmol>
-87.830836

>  <deprotonated_energy_kcalmol>
-184.310209

>  <deltaG_kcalmol>
-8.98

>  <charge>
1

>  <lm5_entropy_jk>
22.813220320094924

>  <number_of_rotatable_bonds>
9

$$$$
