model22
 OpenBabel11252210453D

 84 86  0  0  1  0  0  0  0  0999 V2000
   14.3600   12.5390    7.4990 C   0  0  0  0  0  0  0  0  0  0  0  0
    7.2660   17.9350    9.7940 C   0  0  2  0  0  0  0  0  0  0  0  0
   13.2300   12.2590    8.2250 N   0  0  0  0  0  0  0  0  0  0  0  0
    8.4410   18.3480    8.9570 N   0  0  0  0  0  0  0  0  0  0  0  0
    5.8310   19.2020    8.2960 O   0  0  0  0  0  0  0  0  0  0  0  0
   15.2110   11.6120    6.8920 C   0  0  0  0  0  0  0  0  0  0  0  0
   13.0320   15.9820    8.1520 C   0  0  0  0  0  0  0  0  0  0  0  0
   11.8130   15.9040    6.0080 N   0  0  0  0  0  0  0  0  0  0  0  0
    8.2830   16.5580    7.5850 O   0  0  0  0  0  0  0  0  0  0  0  0
   16.3420   12.1110    6.2090 C   0  0  0  0  0  0  0  0  0  0  0  0
   11.6950   16.3170    7.4140 C   0  0  2  0  0  0  0  0  0  0  0  0
    4.8680   17.4460    9.3710 N   0  0  0  0  0  0  0  0  0  0  0  0
   10.2930   14.2020    6.0010 O   0  0  0  0  0  0  0  0  0  0  0  0
   16.5980   13.5040    6.1880 C   0  0  0  0  0  0  0  0  0  0  0  0
   11.3060   17.8470    7.5360 C   0  0  1  0  0  0  0  0  0  0  0  0
   12.1770   18.6460    6.7420 O   0  0  0  0  0  0  0  0  0  0  0  0
   15.7040   14.4060    6.8100 C   0  0  0  0  0  0  0  0  0  0  0  0
    9.8950   18.1840    7.0170 C   0  0  0  0  0  0  0  0  0  0  0  0
   14.5620   13.8820    7.4270 C   0  0  0  0  0  0  0  0  0  0  0  0
    8.8070   17.6150    7.8570 C   0  0  0  0  0  0  0  0  0  0  0  0
   11.0250   14.9640    5.3950 C   0  0  0  0  0  0  0  0  0  0  0  0
   13.4390   14.5220    8.0720 C   0  0  0  0  0  0  0  0  0  0  0  0
   12.6410   13.4960    8.5770 C   0  0  0  0  0  0  0  0  0  0  0  0
   11.0740   15.0230    3.8780 C   0  0  0  0  0  0  0  0  0  0  0  0
    3.6370   17.4130    8.5600 C   0  0  0  0  0  0  0  0  0  0  0  0
    9.6830   15.1320    3.1720 C   0  0  0  0  0  0  0  0  0  0  0  0
    8.8580   16.2830    3.7870 C   0  0  0  0  0  0  0  0  0  0  0  0
    7.4390   16.3930    3.1890 C   0  0  0  0  0  0  0  0  0  0  0  0
    6.4550   16.9190    4.2620 C   0  0  0  0  0  0  0  0  0  0  0  0
    4.9990   16.8950    3.7490 C   0  0  0  0  0  0  0  0  0  0  0  0
    3.2410   15.9540    8.2460 C   0  0  0  0  0  0  0  0  0  0  0  0
    5.9360   18.2740    9.0820 C   0  0  0  0  0  0  0  0  0  0  0  0
    7.3780   18.4640   11.2500 C   0  0  0  0  0  0  0  0  0  0  0  0
    2.7050   15.7900    6.7950 C   0  0  0  0  0  0  0  0  0  0  0  0
    3.8570   15.7450    5.7500 C   0  0  0  0  0  0  0  0  0  0  0  0
    3.9530   17.0320    4.8870 C   0  0  0  0  0  0  0  0  0  0  0  0
    6.4030   17.7700   12.2050 C   0  0  0  0  0  0  0  0  0  0  0  0
    7.1120   19.9710   11.3410 C   0  0  0  0  0  0  0  0  0  0  0  0
    7.7150   20.5240   10.6120 H   0  0  0  0  0  0  0  0  0  0  0  0
    8.8170   19.2900    9.0400 H   0  0  0  0  0  0  0  0  0  0  0  0
    7.2550   16.8440    9.8550 H   0  0  0  0  0  0  0  0  0  0  0  0
   12.9500   16.2840    9.2030 H   0  0  0  0  0  0  0  0  0  0  0  0
   10.8830   15.7310    7.8750 H   0  0  0  0  0  0  0  0  0  0  0  0
   11.3770   18.1390    8.5980 H   0  0  0  0  0  0  0  0  0  0  0  0
    9.7590   17.7750    6.0170 H   0  0  0  0  0  0  0  0  0  0  0  0
   11.7090   13.5560    9.1200 H   0  0  0  0  0  0  0  0  0  0  0  0
   12.8980   11.3350    8.4690 H   0  0  0  0  0  0  0  0  0  0  0  0
   15.0090   10.5430    6.9470 H   0  0  0  0  0  0  0  0  0  0  0  0
   17.0310   11.4210    5.7190 H   0  0  0  0  0  0  0  0  0  0  0  0
   17.4870   13.8830    5.6840 H   0  0  0  0  0  0  0  0  0  0  0  0
   11.6020   14.1190    3.5630 H   0  0  0  0  0  0  0  0  0  0  0  0
   15.8890   15.4760    6.8080 H   0  0  0  0  0  0  0  0  0  0  0  0
    3.8110   17.9610    7.6230 H   0  0  0  0  0  0  0  0  0  0  0  0
    9.1430   14.1810    3.2880 H   0  0  0  0  0  0  0  0  0  0  0  0
    9.3900   17.2380    3.6750 H   0  0  0  0  0  0  0  0  0  0  0  0
    7.0990   15.4090    2.8390 H   0  0  0  0  0  0  0  0  0  0  0  0
    6.7300   17.9370    4.5680 H   0  0  0  0  0  0  0  0  0  0  0  0
    4.8080   15.9780    3.1730 H   0  0  0  0  0  0  0  0  0  0  0  0
    2.4900   15.6200    8.9780 H   0  0  0  0  0  0  0  0  0  0  0  0
   12.4190   16.4530    5.4160 H   0  0  0  0  0  0  0  0  0  0  0  0
    5.0560   16.6710   10.0030 H   0  0  0  0  0  0  0  0  0  0  0  0
    8.4010   18.2410   11.5930 H   0  0  0  0  0  0  0  0  0  0  0  0
    1.9760   16.5780    6.5520 H   0  0  0  0  0  0  0  0  0  0  0  0
    3.7140   14.8810    5.0850 H   0  0  0  0  0  0  0  0  0  0  0  0
    2.9720   17.2540    4.4450 H   0  0  0  0  0  0  0  0  0  0  0  0
   12.8810   19.0010    7.3490 H   0  0  0  0  0  0  0  0  0  0  0  0
    6.5140   16.6800   12.1610 H   0  0  0  0  0  0  0  0  0  0  0  0
    7.3110   20.3620   12.3450 H   0  0  0  0  0  0  0  0  0  0  0  0
   13.8260   16.6060    7.7280 H   0  0  0  0  0  0  0  0  0  0  0  0
    9.7330   19.2590    6.9610 H   0  0  0  0  0  0  0  0  0  0  0  0
   11.7070   15.8650    3.5940 H   0  0  0  0  0  0  0  0  0  0  0  0
    2.8220   17.9370    9.0840 H   0  0  0  0  0  0  0  0  0  0  0  0
    9.8080   15.2890    2.0890 H   0  0  0  0  0  0  0  0  0  0  0  0
    8.7630   16.1020    4.8670 H   0  0  0  0  0  0  0  0  0  0  0  0
    7.4390   17.0460    2.3050 H   0  0  0  0  0  0  0  0  0  0  0  0
    6.5510   16.3090    5.1690 H   0  0  0  0  0  0  0  0  0  0  0  0
    4.8810   17.7250    3.0430 H   0  0  0  0  0  0  0  0  0  0  0  0
    4.1060   15.2920    8.3940 H   0  0  0  0  0  0  0  0  0  0  0  0
    2.1390   14.8480    6.7310 H   0  0  0  0  0  0  0  0  0  0  0  0
    4.8150   15.5670    6.2560 H   0  0  0  0  0  0  0  0  0  0  0  0
    4.2090   17.8990    5.5110 H   0  0  0  0  0  0  0  0  0  0  0  0
    5.3570   18.0120   11.9730 H   0  0  0  0  0  0  0  0  0  0  0  0
    6.0640   20.1980   11.1080 H   0  0  0  0  0  0  0  0  0  0  0  0
    6.5790   18.0830   13.2420 H   0  0  0  0  0  0  0  0  0  0  0  0
  1  3  1  0  0  0  0
  2 41  1  1  0  0  0
  2 33  1  0  0  0  0
  3 47  1  0  0  0  0
  3 23  1  0  0  0  0
  4 40  1  0  0  0  0
  4  2  1  0  0  0  0
  5 32  2  0  0  0  0
  6 48  1  0  0  0  0
  6  1  2  0  0  0  0
  7 42  1  0  0  0  0
  8 11  1  0  0  0  0
  9 20  2  0  0  0  0
 10  6  1  0  0  0  0
 11 43  1  1  0  0  0
 11 15  1  0  0  0  0
 11  7  1  0  0  0  0
 12 61  1  0  0  0  0
 14 10  2  0  0  0  0
 14 17  1  0  0  0  0
 15 44  1  1  0  0  0
 16 15  1  0  0  0  0
 16 66  1  0  0  0  0
 17 19  2  0  0  0  0
 18 70  1  0  0  0  0
 18 15  1  0  0  0  0
 18 20  1  0  0  0  0
 19  1  1  0  0  0  0
 19 22  1  0  0  0  0
 20  4  1  0  0  0  0
 21 13  2  0  0  0  0
 21  8  1  0  0  0  0
 22  7  1  0  0  0  0
 22 23  2  0  0  0  0
 23 46  1  0  0  0  0
 24 21  1  0  0  0  0
 25 12  1  0  0  0  0
 25 72  1  0  0  0  0
 26 24  1  0  0  0  0
 26 27  1  0  0  0  0
 27 55  1  0  0  0  0
 27 74  1  0  0  0  0
 28 27  1  0  0  0  0
 28 29  1  0  0  0  0
 29 57  1  0  0  0  0
 29 76  1  0  0  0  0
 30 29  1  0  0  0  0
 30 36  1  0  0  0  0
 31 59  1  0  0  0  0
 31 78  1  0  0  0  0
 31 25  1  0  0  0  0
 32 12  1  0  0  0  0
 32  2  1  0  0  0  0
 33 38  1  0  0  0  0
 33 62  1  0  0  0  0
 33 37  1  0  0  0  0
 34 31  1  0  0  0  0
 35 80  1  0  0  0  0
 35 34  1  0  0  0  0
 36 35  1  0  0  0  0
 36 81  1  0  0  0  0
 37 84  1  0  0  0  0
 38 68  1  0  0  0  0
 39 38  1  0  0  0  0
 45 18  1  0  0  0  0
 49 10  1  0  0  0  0
 50 14  1  0  0  0  0
 51 24  1  0  0  0  0
 52 17  1  0  0  0  0
 53 25  1  0  0  0  0
 54 26  1  0  0  0  0
 56 28  1  0  0  0  0
 58 30  1  0  0  0  0
 60  8  1  0  0  0  0
 63 34  1  0  0  0  0
 64 35  1  0  0  0  0
 65 36  1  0  0  0  0
 67 37  1  0  0  0  0
 69  7  1  0  0  0  0
 71 24  1  0  0  0  0
 73 26  1  0  0  0  0
 75 28  1  0  0  0  0
 77 30  1  0  0  0  0
 79 34  1  0  0  0  0
 82 37  1  0  0  0  0
 83 38  1  0  0  0  0
M  END
>  <IC50_NM>
188

>  <number_of_rotatable_bonds>
3

>  <charge>
0

>  <lm5_entropy_jk>
30.51387600249522

$$$$
