model22
 OpenBabel11252210453D

 84 86  0  0  1  0  0  0  0  0999 V2000
   14.2330   12.3230    7.4370 C   0  0  0  0  0  0  0  0  0  0  0  0
    7.2250   17.9670    9.7500 C   0  0  2  0  0  0  0  0  0  0  0  0
   13.2170   12.1130    8.3330 N   0  0  0  0  0  0  0  0  0  0  0  0
    8.3990   18.3820    8.9100 N   0  0  0  0  0  0  0  0  0  0  0  0
    5.7400   19.3110    8.3570 O   0  0  0  0  0  0  0  0  0  0  0  0
   15.0290   11.3430    6.8380 C   0  0  0  0  0  0  0  0  0  0  0  0
   13.0520   15.8310    8.0610 C   0  0  0  0  0  0  0  0  0  0  0  0
   11.7760   15.8600    5.9510 N   0  0  0  0  0  0  0  0  0  0  0  0
    8.3750   16.5180    7.6330 O   0  0  0  0  0  0  0  0  0  0  0  0
   16.0610   11.7730    5.9770 C   0  0  0  0  0  0  0  0  0  0  0  0
   11.7050   16.2240    7.3730 C   0  0  2  0  0  0  0  0  0  0  0  0
    4.8280   17.4830    9.3520 N   0  0  0  0  0  0  0  0  0  0  0  0
   10.3690   14.0580    5.9420 O   0  0  0  0  0  0  0  0  0  0  0  0
   16.2700   13.1560    5.7580 C   0  0  0  0  0  0  0  0  0  0  0  0
   11.3570   17.7600    7.5720 C   0  0  1  0  0  0  0  0  0  0  0  0
   12.2600   18.5770    6.8320 O   0  0  0  0  0  0  0  0  0  0  0  0
   15.4380   14.1150    6.3830 C   0  0  0  0  0  0  0  0  0  0  0  0
    9.9600   18.1620    7.0560 C   0  0  0  0  0  0  0  0  0  0  0  0
   14.4040   13.6540    7.2070 C   0  0  0  0  0  0  0  0  0  0  0  0
    8.8480   17.6050    7.8720 C   0  0  0  0  0  0  0  0  0  0  0  0
   11.0430   14.8760    5.3390 C   0  0  0  0  0  0  0  0  0  0  0  0
   13.3930   14.3550    7.9650 C   0  0  0  0  0  0  0  0  0  0  0  0
   12.6960   13.3820    8.6790 C   0  0  0  0  0  0  0  0  0  0  0  0
   11.0810   14.9400    3.8210 C   0  0  0  0  0  0  0  0  0  0  0  0
    3.5600   17.5030    8.6010 C   0  0  0  0  0  0  0  0  0  0  0  0
    9.6830   15.1130    3.1410 C   0  0  0  0  0  0  0  0  0  0  0  0
    8.9160   16.2980    3.7690 C   0  0  0  0  0  0  0  0  0  0  0  0
    7.4860   16.4560    3.2030 C   0  0  0  0  0  0  0  0  0  0  0  0
    6.5500   17.0440    4.2870 C   0  0  0  0  0  0  0  0  0  0  0  0
    5.0840   17.0820    3.8040 C   0  0  0  0  0  0  0  0  0  0  0  0
    3.1270   16.0650    8.2420 C   0  0  0  0  0  0  0  0  0  0  0  0
    5.8780   18.3400    9.0850 C   0  0  0  0  0  0  0  0  0  0  0  0
    7.3780   18.4400   11.2220 C   0  0  0  0  0  0  0  0  0  0  0  0
    2.7120   15.9370    6.7510 C   0  0  0  0  0  0  0  0  0  0  0  0
    3.9460   15.9410    5.8050 C   0  0  0  0  0  0  0  0  0  0  0  0
    4.0670   17.2390    4.9640 C   0  0  0  0  0  0  0  0  0  0  0  0
    6.4190   17.7270   12.1820 C   0  0  0  0  0  0  0  0  0  0  0  0
    7.1410   19.9480   11.3670 C   0  0  0  0  0  0  0  0  0  0  0  0
    7.7500   20.5120   10.6520 H   0  0  0  0  0  0  0  0  0  0  0  0
    8.7680   19.3270    8.9870 H   0  0  0  0  0  0  0  0  0  0  0  0
    7.1930   16.8770    9.7790 H   0  0  0  0  0  0  0  0  0  0  0  0
   13.0170   16.1340    9.1150 H   0  0  0  0  0  0  0  0  0  0  0  0
   10.8910   15.6390    7.8310 H   0  0  0  0  0  0  0  0  0  0  0  0
   11.4300   17.9950    8.6490 H   0  0  0  0  0  0  0  0  0  0  0  0
    9.8160   17.7890    6.0430 H   0  0  0  0  0  0  0  0  0  0  0  0
   11.8860   13.4980    9.3840 H   0  0  0  0  0  0  0  0  0  0  0  0
   12.9240   11.2160    8.6960 H   0  0  0  0  0  0  0  0  0  0  0  0
   14.8640   10.2860    7.0380 H   0  0  0  0  0  0  0  0  0  0  0  0
   16.7070   11.0390    5.4910 H   0  0  0  0  0  0  0  0  0  0  0  0
   17.0780   13.4850    5.1050 H   0  0  0  0  0  0  0  0  0  0  0  0
   11.5600   14.0120    3.4910 H   0  0  0  0  0  0  0  0  0  0  0  0
   15.5990   15.1780    6.2400 H   0  0  0  0  0  0  0  0  0  0  0  0
    3.6930   18.0950    7.6820 H   0  0  0  0  0  0  0  0  0  0  0  0
    9.1050   14.1860    3.2680 H   0  0  0  0  0  0  0  0  0  0  0  0
    9.4810   17.2310    3.6370 H   0  0  0  0  0  0  0  0  0  0  0  0
    7.0960   15.4810    2.8820 H   0  0  0  0  0  0  0  0  0  0  0  0
    6.8780   18.0540    4.5680 H   0  0  0  0  0  0  0  0  0  0  0  0
    4.8470   16.1840    3.2170 H   0  0  0  0  0  0  0  0  0  0  0  0
    2.2990   15.7620    8.8990 H   0  0  0  0  0  0  0  0  0  0  0  0
   12.3800   16.4200    5.3630 H   0  0  0  0  0  0  0  0  0  0  0  0
    5.0430   16.6700    9.9260 H   0  0  0  0  0  0  0  0  0  0  0  0
    8.4050   18.1860   11.5320 H   0  0  0  0  0  0  0  0  0  0  0  0
    1.9910   16.7230    6.4750 H   0  0  0  0  0  0  0  0  0  0  0  0
    3.8850   15.0770    5.1290 H   0  0  0  0  0  0  0  0  0  0  0  0
    3.0880   17.5040    4.5420 H   0  0  0  0  0  0  0  0  0  0  0  0
   12.8460   19.0300    7.4950 H   0  0  0  0  0  0  0  0  0  0  0  0
    6.5320   16.6380   12.1220 H   0  0  0  0  0  0  0  0  0  0  0  0
    7.3550   20.3040   12.3820 H   0  0  0  0  0  0  0  0  0  0  0  0
   13.8570   16.4210    7.6130 H   0  0  0  0  0  0  0  0  0  0  0  0
    9.8370   19.2430    7.0290 H   0  0  0  0  0  0  0  0  0  0  0  0
   11.7480   15.7560    3.5330 H   0  0  0  0  0  0  0  0  0  0  0  0
    2.7810   18.0120    9.1900 H   0  0  0  0  0  0  0  0  0  0  0  0
    9.7930   15.2640    2.0560 H   0  0  0  0  0  0  0  0  0  0  0  0
    8.8410   16.1280    4.8520 H   0  0  0  0  0  0  0  0  0  0  0  0
    7.4910   17.0900    2.3060 H   0  0  0  0  0  0  0  0  0  0  0  0
    6.6310   16.4450    5.2040 H   0  0  0  0  0  0  0  0  0  0  0  0
    4.9770   17.9260    3.1140 H   0  0  0  0  0  0  0  0  0  0  0  0
    3.9410   15.3580    8.4550 H   0  0  0  0  0  0  0  0  0  0  0  0
    2.1660   14.9910    6.6140 H   0  0  0  0  0  0  0  0  0  0  0  0
    4.8690   15.7960    6.3840 H   0  0  0  0  0  0  0  0  0  0  0  0
    4.3650   18.0820    5.6030 H   0  0  0  0  0  0  0  0  0  0  0  0
    5.3690   17.9700   11.9710 H   0  0  0  0  0  0  0  0  0  0  0  0
    6.0960   20.2030   11.1520 H   0  0  0  0  0  0  0  0  0  0  0  0
    6.6110   18.0210   13.2220 H   0  0  0  0  0  0  0  0  0  0  0  0
  1  3  1  0  0  0  0
  2 41  1  1  0  0  0
  2 33  1  0  0  0  0
  3 47  1  0  0  0  0
  3 23  1  0  0  0  0
  4 40  1  0  0  0  0
  4  2  1  0  0  0  0
  5 32  2  0  0  0  0
  6 48  1  0  0  0  0
  6  1  2  0  0  0  0
  7 42  1  0  0  0  0
  8 11  1  0  0  0  0
  9 20  2  0  0  0  0
 10  6  1  0  0  0  0
 11 43  1  1  0  0  0
 11 15  1  0  0  0  0
 11  7  1  0  0  0  0
 12 61  1  0  0  0  0
 14 10  2  0  0  0  0
 14 17  1  0  0  0  0
 15 44  1  1  0  0  0
 16 15  1  0  0  0  0
 16 66  1  0  0  0  0
 17 19  2  0  0  0  0
 18 70  1  0  0  0  0
 18 15  1  0  0  0  0
 18 20  1  0  0  0  0
 19  1  1  0  0  0  0
 19 22  1  0  0  0  0
 20  4  1  0  0  0  0
 21 13  2  0  0  0  0
 21  8  1  0  0  0  0
 22  7  1  0  0  0  0
 22 23  2  0  0  0  0
 23 46  1  0  0  0  0
 24 21  1  0  0  0  0
 25 12  1  0  0  0  0
 25 72  1  0  0  0  0
 26 24  1  0  0  0  0
 26 27  1  0  0  0  0
 27 55  1  0  0  0  0
 27 74  1  0  0  0  0
 28 27  1  0  0  0  0
 28 29  1  0  0  0  0
 29 57  1  0  0  0  0
 29 76  1  0  0  0  0
 30 29  1  0  0  0  0
 30 36  1  0  0  0  0
 31 59  1  0  0  0  0
 31 78  1  0  0  0  0
 31 25  1  0  0  0  0
 32 12  1  0  0  0  0
 32  2  1  0  0  0  0
 33 38  1  0  0  0  0
 33 62  1  0  0  0  0
 33 37  1  0  0  0  0
 34 31  1  0  0  0  0
 35 80  1  0  0  0  0
 35 34  1  0  0  0  0
 36 35  1  0  0  0  0
 36 81  1  0  0  0  0
 37 84  1  0  0  0  0
 38 68  1  0  0  0  0
 39 38  1  0  0  0  0
 45 18  1  0  0  0  0
 49 10  1  0  0  0  0
 50 14  1  0  0  0  0
 51 24  1  0  0  0  0
 52 17  1  0  0  0  0
 53 25  1  0  0  0  0
 54 26  1  0  0  0  0
 56 28  1  0  0  0  0
 58 30  1  0  0  0  0
 60  8  1  0  0  0  0
 63 34  1  0  0  0  0
 64 35  1  0  0  0  0
 65 36  1  0  0  0  0
 67 37  1  0  0  0  0
 69  7  1  0  0  0  0
 71 24  1  0  0  0  0
 73 26  1  0  0  0  0
 75 28  1  0  0  0  0
 77 30  1  0  0  0  0
 79 34  1  0  0  0  0
 82 37  1  0  0  0  0
 83 38  1  0  0  0  0
M  END
>  <IC50_NM>
188

>  <number_of_rotatable_bonds>
3

>  <charge>
0

>  <lm5_entropy_jk>
30.51387600249522

$$$$
