2ZQ2
 OpenBabel11252210453D

 67 69  0  0  1  0  0  0  0  0999 V2000
    2.5250   20.6580   18.5030 N   0  0  0  0  0  0  0  0  0  0  0  0
    2.3840   21.9290   14.9840 N   0  3  0  0  0  0  0  0  0  0  0  0
    0.8640   17.5100   19.5330 N   0  0  0  0  0  0  0  0  0  0  0  0
   -1.6030   12.4260   14.9770 N   0  3  0  0  0  0  0  0  0  0  0  0
   -2.7110   14.2490   14.0610 N   0  0  0  0  0  0  0  0  0  0  0  0
    2.4500   19.3630   19.2410 C   0  0  1  0  0  0  0  0  0  0  0  0
    3.1130   19.6330   20.6120 C   0  0  0  0  0  0  0  0  0  0  0  0
    3.3030   21.1570   20.7360 C   0  0  0  0  0  0  0  0  0  0  0  0
    3.1550   21.7440   19.3200 C   0  0  0  0  0  0  0  0  0  0  0  0
    2.3810   22.1200   16.4920 C   0  0  0  0  0  0  0  0  0  0  0  0
    0.9910   18.8980   19.4270 C   0  0  0  0  0  0  0  0  0  0  0  0
    2.1050   20.7870   17.2040 C   0  0  0  0  0  0  0  0  0  0  0  0
   -1.9840   13.7280   15.0900 C   0  0  0  0  0  0  0  0  0  0  0  0
   -0.4510   16.8630   19.7300 C   0  0  0  0  0  0  0  0  0  0  0  0
   -0.8470   16.0650   18.5070 C   0  0  0  0  0  0  0  0  0  0  0  0
   -0.7720   14.6630   18.5410 C   0  0  0  0  0  0  0  0  0  0  0  0
   -1.1380   13.9080   17.4330 C   0  0  0  0  0  0  0  0  0  0  0  0
   -1.5810   14.5410   16.2520 C   0  0  0  0  0  0  0  0  0  0  0  0
   -1.6690   15.9470   16.2280 C   0  0  0  0  0  0  0  0  0  0  0  0
   -1.3060   16.6990   17.3430 C   0  0  0  0  0  0  0  0  0  0  0  0
    3.5610   21.5960   12.8410 C   0  0  0  0  0  0  0  0  0  0  0  0
    4.8160   21.6600   11.9380 C   0  0  0  0  0  0  0  0  0  0  0  0
    5.9450   22.5930   12.4000 C   0  0  0  0  0  0  0  0  0  0  0  0
    7.1200   21.8720   13.0790 C   0  0  0  0  0  0  0  0  0  0  0  0
    6.8080   21.3210   14.4780 C   0  0  0  0  0  0  0  0  0  0  0  0
    5.8380   20.1310   14.4610 C   0  0  0  0  0  0  0  0  0  0  0  0
    4.4420   20.4670   15.0170 C   0  0  0  0  0  0  0  0  0  0  0  0
    3.8040   21.6920   14.3550 C   0  0  0  0  0  0  0  0  0  0  0  0
    0.0340   19.6380   19.5490 O   0  0  0  0  0  0  0  0  0  0  0  0
    1.5230   19.8750   16.6170 O   0  0  0  0  0  0  0  0  0  0  0  0
    3.0250   18.5980   18.6520 H   0  0  0  0  0  0  0  0  0  0  0  0
    4.1030   19.1170   20.6520 H   0  0  0  0  0  0  0  0  0  0  0  0
    2.4770   19.2540   21.4440 H   0  0  0  0  0  0  0  0  0  0  0  0
    2.5330   21.6000   21.4140 H   0  0  0  0  0  0  0  0  0  0  0  0
    4.3110   21.4050   21.1490 H   0  0  0  0  0  0  0  0  0  0  0  0
    2.5050   22.6570   19.3140 H   0  0  0  0  0  0  0  0  0  0  0  0
    4.1580   22.0000   18.8840 H   0  0  0  0  0  0  0  0  0  0  0  0
    1.5600   22.8560   16.7620 H   0  0  0  0  0  0  0  0  0  0  0  0
    3.3530   22.6000   16.8010 H   0  0  0  0  0  0  0  0  0  0  0  0
    1.7510   21.1150   14.7430 H   0  0  0  0  0  0  0  0  0  0  0  0
    1.9810   22.8130   14.5520 H   0  0  0  0  0  0  0  0  0  0  0  0
    1.6580   16.8620   19.3980 H   0  0  0  0  0  0  0  0  0  0  0  0
   -0.3680   16.1810   20.6260 H   0  0  0  0  0  0  0  0  0  0  0  0
   -1.2440   17.6400   19.9360 H   0  0  0  0  0  0  0  0  0  0  0  0
   -0.4350   14.1580   19.4520 H   0  0  0  0  0  0  0  0  0  0  0  0
   -1.0870   12.8200   17.5060 H   0  0  0  0  0  0  0  0  0  0  0  0
   -2.0230   16.4800   15.3420 H   0  0  0  0  0  0  0  0  0  0  0  0
   -1.3980   17.7910   17.2980 H   0  0  0  0  0  0  0  0  0  0  0  0
    5.5350   23.3700   13.0860 H   0  0  0  0  0  0  0  0  0  0  0  0
    6.3450   23.1210   11.4990 H   0  0  0  0  0  0  0  0  0  0  0  0
    7.9580   22.6050   13.1820 H   0  0  0  0  0  0  0  0  0  0  0  0
    7.4550   21.0270   12.4320 H   0  0  0  0  0  0  0  0  0  0  0  0
    6.4020   22.1370   15.1200 H   0  0  0  0  0  0  0  0  0  0  0  0
    7.7570   20.9770   14.9380 H   0  0  0  0  0  0  0  0  0  0  0  0
    6.2660   19.2980   15.0680 H   0  0  0  0  0  0  0  0  0  0  0  0
    5.7270   19.7380   13.4220 H   0  0  0  0  0  0  0  0  0  0  0  0
    3.7870   19.5810   14.8680 H   0  0  0  0  0  0  0  0  0  0  0  0
    4.5550   20.6680   16.1110 H   0  0  0  0  0  0  0  0  0  0  0  0
    4.3920   22.6180   14.5970 H   0  0  0  0  0  0  0  0  0  0  0  0
   -3.0870   13.6100   13.3150 H   0  0  0  0  0  0  0  0  0  0  0  0
   -3.0900   15.2140   14.0850 H   0  0  0  0  0  0  0  0  0  0  0  0
    4.4500   22.0080   10.9390 H   0  0  0  0  0  0  0  0  0  0  0  0
    5.2150   20.6270   11.8080 H   0  0  0  0  0  0  0  0  0  0  0  0
    3.0360   20.6380   12.6120 H   0  0  0  0  0  0  0  0  0  0  0  0
    2.9010   22.4500   12.5340 H   0  0  0  0  0  0  0  0  0  0  0  0
   -0.9550   11.9770   15.6570 H   0  0  0  0  0  0  0  0  0  0  0  0
   -2.0560   11.7890   14.2800 H   0  0  0  0  0  0  0  0  0  0  0  0
  1  6  1  0  0  0  0
  1  9  1  0  0  0  0
  1 12  1  0  0  0  0
  2 10  1  0  0  0  0
  2 28  1  0  0  0  0
  2 40  1  0  0  0  0
  2 41  1  0  0  0  0
  3 11  1  0  0  0  0
  3 14  1  0  0  0  0
  3 42  1  0  0  0  0
  4 13  2  0  0  0  0
  4 66  1  0  0  0  0
  4 67  1  0  0  0  0
  5 13  1  0  0  0  0
  5 60  1  0  0  0  0
  5 61  1  0  0  0  0
  6  7  1  0  0  0  0
  6 11  1  0  0  0  0
  6 31  1  6  0  0  0
  7  8  1  0  0  0  0
  7 32  1  0  0  0  0
  7 33  1  0  0  0  0
  8  9  1  0  0  0  0
  8 34  1  0  0  0  0
  8 35  1  0  0  0  0
  9 36  1  0  0  0  0
  9 37  1  0  0  0  0
 10 12  1  0  0  0  0
 10 38  1  0  0  0  0
 10 39  1  0  0  0  0
 11 29  2  0  0  0  0
 12 30  2  0  0  0  0
 13 18  1  0  0  0  0
 14 15  1  0  0  0  0
 14 43  1  0  0  0  0
 14 44  1  0  0  0  0
 15 16  2  0  0  0  0
 15 20  1  0  0  0  0
 16 17  1  0  0  0  0
 16 45  1  0  0  0  0
 17 18  2  0  0  0  0
 17 46  1  0  0  0  0
 18 19  1  0  0  0  0
 19 20  2  0  0  0  0
 19 47  1  0  0  0  0
 20 48  1  0  0  0  0
 21 22  1  0  0  0  0
 21 28  1  0  0  0  0
 21 64  1  0  0  0  0
 21 65  1  0  0  0  0
 22 23  1  0  0  0  0
 22 62  1  0  0  0  0
 22 63  1  0  0  0  0
 23 24  1  0  0  0  0
 23 49  1  0  0  0  0
 23 50  1  0  0  0  0
 24 25  1  0  0  0  0
 24 51  1  0  0  0  0
 24 52  1  0  0  0  0
 25 26  1  0  0  0  0
 25 53  1  0  0  0  0
 25 54  1  0  0  0  0
 26 27  1  0  0  0  0
 26 55  1  0  0  0  0
 26 56  1  0  0  0  0
 27 28  1  0  0  0  0
 27 57  1  0  0  0  0
 27 58  1  0  0  0  0
 28 59  1  0  0  0  0
M  CHG  2   2   1   4   1
M  END
>  <number_of_rotatable_bonds>
9

>  <lm5_entropy_jk>
23.575177463858182

>  <deltaG_kcalmol>
-8.96

>  <charge>
2

$$$$
