3LJJ
 OpenBabel11252210453D

 58 60  0  0  1  0  0  0  0  0999 V2000
    2.2570   20.3890   18.0160 N   0  0  0  0  0  0  0  0  0  0  0  0
    1.0640   21.1390   14.5050 N   0  3  0  0  0  0  0  0  0  0  0  0
    0.8350   17.4060   19.4870 N   0  0  0  0  0  0  0  0  0  0  0  0
   -1.6060   12.4780   14.7800 N   0  3  0  0  0  0  0  0  0  0  0  0
   -2.8110   14.2700   13.9090 N   0  0  0  0  0  0  0  0  0  0  0  0
    2.3820   19.2780   19.0090 C   0  0  1  0  0  0  0  0  0  0  0  0
    3.1060   19.8850   20.2290 C   0  0  0  0  0  0  0  0  0  0  0  0
    3.0970   21.4160   20.0440 C   0  0  0  0  0  0  0  0  0  0  0  0
    2.7210   21.7000   18.5770 C   0  0  0  0  0  0  0  0  0  0  0  0
    0.9670   18.7890   19.3800 C   0  0  0  0  0  0  0  0  0  0  0  0
    1.6320   20.2250   16.8060 C   0  0  0  0  0  0  0  0  0  0  0  0
    1.5270   21.4700   15.9160 C   0  0  0  0  0  0  0  0  0  0  0  0
    2.2070   21.2370   13.4660 C   0  0  0  0  0  0  0  0  0  0  0  0
    2.7730   22.6730   13.3540 C   0  0  0  0  0  0  0  0  0  0  0  0
    2.9870   22.9390   11.8460 C   0  0  0  0  0  0  0  0  0  0  0  0
    2.6100   21.6420   11.1040 C   0  0  0  0  0  0  0  0  0  0  0  0
    1.6720   20.8780   12.0640 C   0  0  0  0  0  0  0  0  0  0  0  0
   -0.5000   16.7850   19.6110 C   0  0  0  0  0  0  0  0  0  0  0  0
   -0.8700   16.0340   18.3510 C   0  0  0  0  0  0  0  0  0  0  0  0
   -1.2250   16.7000   17.1680 C   0  0  0  0  0  0  0  0  0  0  0  0
   -1.6050   15.9780   16.0370 C   0  0  0  0  0  0  0  0  0  0  0  0
   -1.6170   14.5700   16.0670 C   0  0  0  0  0  0  0  0  0  0  0  0
   -1.2590   13.9060   17.2590 C   0  0  0  0  0  0  0  0  0  0  0  0
   -0.8920   14.6300   18.3850 C   0  0  0  0  0  0  0  0  0  0  0  0
   -2.0330   13.7630   14.9060 C   0  0  0  0  0  0  0  0  0  0  0  0
    0.0320   19.5360   19.6170 O   0  0  0  0  0  0  0  0  0  0  0  0
    1.1960   19.1350   16.4300 O   0  0  0  0  0  0  0  0  0  0  0  0
    2.9920   18.4610   18.5430 H   0  0  0  0  0  0  0  0  0  0  0  0
    4.1600   19.5130   20.2630 H   0  0  0  0  0  0  0  0  0  0  0  0
    2.6040   19.6020   21.1840 H   0  0  0  0  0  0  0  0  0  0  0  0
    2.3550   21.8970   20.7270 H   0  0  0  0  0  0  0  0  0  0  0  0
    4.1040   21.8480   20.2680 H   0  0  0  0  0  0  0  0  0  0  0  0
    1.9100   22.4700   18.5030 H   0  0  0  0  0  0  0  0  0  0  0  0
    3.6120   22.0480   17.9880 H   0  0  0  0  0  0  0  0  0  0  0  0
    0.7870   22.1970   16.3760 H   0  0  0  0  0  0  0  0  0  0  0  0
    2.5210   22.0080   15.8690 H   0  0  0  0  0  0  0  0  0  0  0  0
    0.6400   20.1540   14.4870 H   0  0  0  0  0  0  0  0  0  0  0  0
    0.3080   21.8370   14.2440 H   0  0  0  0  0  0  0  0  0  0  0  0
    3.0120   20.5290   13.7910 H   0  0  0  0  0  0  0  0  0  0  0  0
    2.0670   23.4250   13.7790 H   0  0  0  0  0  0  0  0  0  0  0  0
    3.7370   22.7510   13.9090 H   0  0  0  0  0  0  0  0  0  0  0  0
    2.3300   23.7780   11.5190 H   0  0  0  0  0  0  0  0  0  0  0  0
    4.0470   23.2180   11.6530 H   0  0  0  0  0  0  0  0  0  0  0  0
    3.5220   21.0320   10.9060 H   0  0  0  0  0  0  0  0  0  0  0  0
    2.0930   21.8600   10.1420 H   0  0  0  0  0  0  0  0  0  0  0  0
    1.6980   19.7890   11.8780 H   0  0  0  0  0  0  0  0  0  0  0  0
    0.6290   21.2560   11.9330 H   0  0  0  0  0  0  0  0  0  0  0  0
    1.6150   16.7540   19.3000 H   0  0  0  0  0  0  0  0  0  0  0  0
   -0.4720   16.0800   20.4910 H   0  0  0  0  0  0  0  0  0  0  0  0
   -1.2860   17.5770   19.8010 H   0  0  0  0  0  0  0  0  0  0  0  0
   -1.2250   17.7960   17.1180 H   0  0  0  0  0  0  0  0  0  0  0  0
   -1.8980   16.5280   15.1390 H   0  0  0  0  0  0  0  0  0  0  0  0
   -1.2810   12.8180   17.3260 H   0  0  0  0  0  0  0  0  0  0  0  0
   -0.6380   14.0940   19.3060 H   0  0  0  0  0  0  0  0  0  0  0  0
   -2.0560   11.8150   14.1070 H   0  0  0  0  0  0  0  0  0  0  0  0
   -0.9010   12.0680   15.4310 H   0  0  0  0  0  0  0  0  0  0  0  0
   -3.1700   13.6320   13.1520 H   0  0  0  0  0  0  0  0  0  0  0  0
   -3.2580   15.2040   13.9920 H   0  0  0  0  0  0  0  0  0  0  0  0
  1  6  1  0  0  0  0
  1  9  1  0  0  0  0
  1 11  1  0  0  0  0
  2 12  1  0  0  0  0
  2 13  1  0  0  0  0
  2 37  1  0  0  0  0
  2 38  1  0  0  0  0
  3 10  1  0  0  0  0
  3 18  1  0  0  0  0
  3 48  1  0  0  0  0
  4 25  2  0  0  0  0
  4 55  1  0  0  0  0
  4 56  1  0  0  0  0
  5 25  1  0  0  0  0
  5 57  1  0  0  0  0
  5 58  1  0  0  0  0
  6  7  1  0  0  0  0
  6 10  1  0  0  0  0
  6 28  1  6  0  0  0
  7  8  1  0  0  0  0
  7 29  1  0  0  0  0
  7 30  1  0  0  0  0
  8  9  1  0  0  0  0
  8 31  1  0  0  0  0
  8 32  1  0  0  0  0
  9 33  1  0  0  0  0
  9 34  1  0  0  0  0
 10 26  2  0  0  0  0
 11 12  1  0  0  0  0
 11 27  2  0  0  0  0
 12 35  1  0  0  0  0
 12 36  1  0  0  0  0
 13 14  1  0  0  0  0
 13 17  1  0  0  0  0
 13 39  1  0  0  0  0
 14 15  1  0  0  0  0
 14 40  1  0  0  0  0
 14 41  1  0  0  0  0
 15 16  1  0  0  0  0
 15 42  1  0  0  0  0
 15 43  1  0  0  0  0
 16 17  1  0  0  0  0
 16 44  1  0  0  0  0
 16 45  1  0  0  0  0
 17 46  1  0  0  0  0
 17 47  1  0  0  0  0
 18 19  1  0  0  0  0
 18 49  1  0  0  0  0
 18 50  1  0  0  0  0
 19 20  2  0  0  0  0
 19 24  1  0  0  0  0
 20 21  1  0  0  0  0
 20 51  1  0  0  0  0
 21 22  2  0  0  0  0
 21 52  1  0  0  0  0
 22 23  1  0  0  0  0
 22 25  1  0  0  0  0
 23 24  2  0  0  0  0
 23 53  1  0  0  0  0
 24 54  1  0  0  0  0
M  CHG  2   2   1   4   1
M  END
>  <number_of_rotatable_bonds>
9

>  <lm5_entropy_jk>
23.942377463858183

>  <deltaG_kcalmol>
-8.91

>  <charge>
2

$$$$
