5LAB
 OpenBabel11252210453D

 41 41  0  0  0  0  0  0  0  0999 V2000
    7.5120   26.8530    2.4580 N   0  0  0  0  0  0  0  0  0  0  0  0
    5.5450   25.4640    4.9120 C   0  0  0  0  0  0  0  0  0  0  0  0
    8.5810   23.8940    1.4430 N   0  0  0  0  0  0  0  0  0  0  0  0
    4.6140   21.9840    5.7220 O   0  0  0  0  0  0  0  0  0  0  0  0
    7.8770   26.5770    4.1260 S   0  0  0  0  0  0  0  0  0  0  0  0
    4.7230   24.4090    5.3040 C   0  0  0  0  0  0  0  0  0  0  0  0
    9.2820   26.2010    4.2620 O   0  0  0  0  0  0  0  0  0  0  0  0
    5.2410   23.1060    5.2650 C   0  0  0  0  0  0  0  0  0  0  0  0
    7.4450   27.7530    4.8760 O   0  0  0  0  0  0  0  0  0  0  0  0
    6.5310   22.8500    4.7450 C   0  0  0  0  0  0  0  0  0  0  0  0
    8.1640   22.7130    0.7910 O   0  0  0  0  0  0  0  0  0  0  0  0
    7.3360   23.9200    4.3820 C   0  0  0  0  0  0  0  0  0  0  0  0
    6.8780   24.8250    0.2490 O   0  0  0  0  0  0  0  0  0  0  0  0
    6.8670   25.2420    4.5010 C   0  0  0  0  0  0  0  0  0  0  0  0
    3.2380   22.0690    6.1840 C   0  0  0  0  0  0  0  0  0  0  0  0
    6.5810   27.9620    2.1230 C   0  0  0  0  0  0  0  0  0  0  0  0
    8.4400   26.3560    1.4350 C   0  0  0  0  0  0  0  0  0  0  0  0
    7.8800   25.0210    0.9150 C   0  0  0  0  0  0  0  0  0  0  0  0
    7.1300   29.3220    1.6050 C   0  0  0  0  0  0  0  0  0  0  0  0
    8.5030   29.6760    2.1750 C   0  0  0  0  0  0  0  0  0  0  0  0
    7.1170   29.4150    0.0710 C   0  0  0  0  0  0  0  0  0  0  0  0
    5.1320   26.4790    4.9410 H   0  0  0  0  0  0  0  0  0  0  0  0
    9.6230   23.8750    1.5280 H   0  0  0  0  0  0  0  0  0  0  0  0
    3.6980   24.6060    5.6100 H   0  0  0  0  0  0  0  0  0  0  0  0
    6.8770   21.8230    4.6120 H   0  0  0  0  0  0  0  0  0  0  0  0
    8.4010   21.9590    1.5390 H   0  0  0  0  0  0  0  0  0  0  0  0
    8.3430   23.7120    3.9930 H   0  0  0  0  0  0  0  0  0  0  0  0
    3.0310   20.9950    6.4100 H   0  0  0  0  0  0  0  0  0  0  0  0
    2.5860   22.4460    5.3680 H   0  0  0  0  0  0  0  0  0  0  0  0
    3.1830   22.6980    7.0950 H   0  0  0  0  0  0  0  0  0  0  0  0
    5.8470   27.5730    1.3720 H   0  0  0  0  0  0  0  0  0  0  0  0
    6.0180   28.1940    3.0710 H   0  0  0  0  0  0  0  0  0  0  0  0
    8.5390   27.0570    0.5610 H   0  0  0  0  0  0  0  0  0  0  0  0
    9.4780   26.2150    1.8620 H   0  0  0  0  0  0  0  0  0  0  0  0
    6.4000   30.0980    1.9750 H   0  0  0  0  0  0  0  0  0  0  0  0
    9.2630   28.9530    1.8160 H   0  0  0  0  0  0  0  0  0  0  0  0
    8.4790   29.6620    3.2870 H   0  0  0  0  0  0  0  0  0  0  0  0
    8.8030   30.6960    1.8420 H   0  0  0  0  0  0  0  0  0  0  0  0
    7.8270   28.7010   -0.3950 H   0  0  0  0  0  0  0  0  0  0  0  0
    7.4180   30.4440   -0.2400 H   0  0  0  0  0  0  0  0  0  0  0  0
    6.0940   29.2270   -0.3210 H   0  0  0  0  0  0  0  0  0  0  0  0
  1 17  1  0  0  0  0
  1 16  1  0  0  0  0
  1  5  1  0  0  0  0
  2 14  2  0  0  0  0
  2  6  1  0  0  0  0
  2 22  1  0  0  0  0
  3 11  1  0  0  0  0
  3 18  1  0  0  0  0
  3 23  1  0  0  0  0
  4  8  1  0  0  0  0
  4 15  1  0  0  0  0
  5  7  2  0  0  0  0
  5 14  1  0  0  0  0
  5  9  2  0  0  0  0
  6  8  2  0  0  0  0
  6 24  1  0  0  0  0
  8 10  1  0  0  0  0
 10 12  2  0  0  0  0
 10 25  1  0  0  0  0
 11 26  1  0  0  0  0
 12 14  1  0  0  0  0
 12 27  1  0  0  0  0
 13 18  2  0  0  0  0
 15 28  1  0  0  0  0
 15 29  1  0  0  0  0
 15 30  1  0  0  0  0
 16 19  1  0  0  0  0
 16 31  1  0  0  0  0
 16 32  1  0  0  0  0
 17 18  1  0  0  0  0
 17 33  1  0  0  0  0
 17 34  1  0  0  0  0
 19 21  1  0  0  0  0
 19 20  1  0  0  0  0
 19 35  1  0  0  0  0
 20 36  1  0  0  0  0
 20 37  1  0  0  0  0
 20 38  1  0  0  0  0
 21 39  1  0  0  0  0
 21 40  1  0  0  0  0
 21 41  1  0  0  0  0
M  END
>  <lm5_entropy_jk>
45.66589139851115

>  <number_of_rotatable_bonds>
8

>  <deltaG_kcalmol>
-11.42

>  <charge>
0

$$$$
