13c_A.pdb
 OpenBabel11252210453D

 87 90  0  0  1  0  0  0  0  0999 V2000
    7.1650   -6.2270   17.0180 N   0  0  0  0  0  0  0  0  0  0  0  0
    7.7630   -6.0130   19.2210 O   0  0  0  0  0  0  0  0  0  0  0  0
    7.1440   -8.2160   18.4570 C   0  0  0  0  0  0  0  0  0  0  0  0
    6.4110   -4.2010   14.6350 O   0  0  0  0  0  0  0  0  0  0  0  0
    7.4000   -6.7440   18.3100 C   0  0  0  0  0  0  0  0  0  0  0  0
    5.6080   -3.4740   16.6360 N   0  0  0  0  0  0  0  0  0  0  0  0
    7.3800    0.7370   12.7690 C   0  0  0  0  0  0  0  0  0  0  0  0
    4.6410    0.2610   13.6640 N   0  0  0  0  0  0  0  0  0  0  0  0
    5.1870    0.7130   16.4260 O   0  0  0  0  0  0  0  0  0  0  0  0
    7.1030    2.0250   12.2830 C   0  0  0  0  0  0  0  0  0  0  0  0
    4.7630   -1.0970   11.8340 O   0  0  0  0  0  0  0  0  0  0  0  0
    7.2940    2.3200   10.9300 C   0  0  0  0  0  0  0  0  0  0  0  0
    7.7540    1.3320   10.0550 C   0  0  0  0  0  0  0  0  0  0  0  0
    8.0610    0.0570   10.5420 C   0  0  0  0  0  0  0  0  0  0  0  0
    7.8890   -0.2390   11.8960 C   0  0  0  0  0  0  0  0  0  0  0  0
    7.6410   -4.8730   16.6600 C   0  0  2  0  0  0  0  0  0  0  0  0
    6.5110   -4.1950   15.8530 C   0  0  0  0  0  0  0  0  0  0  0  0
    4.3240   -2.9670   16.0880 C   0  0  1  0  0  0  0  0  0  0  0  0
    8.9840   -4.9160   15.8750 C   0  0  0  0  0  0  0  0  0  0  0  0
    9.3750   -3.5080   15.4120 C   0  0  0  0  0  0  0  0  0  0  0  0
   10.0720   -5.5240   16.7730 C   0  0  0  0  0  0  0  0  0  0  0  0
    2.2500   -7.0710   15.6620 C   0  0  0  0  0  0  0  0  0  0  0  0
    2.8460   -7.8690   16.6430 C   0  0  0  0  0  0  0  0  0  0  0  0
    3.5460   -7.2670   17.6940 C   0  0  0  0  0  0  0  0  0  0  0  0
    3.6470   -5.8770   17.7650 C   0  0  0  0  0  0  0  0  0  0  0  0
    3.0500   -5.0720   16.7800 C   0  0  0  0  0  0  0  0  0  0  0  0
    2.3540   -5.6790   15.7230 C   0  0  0  0  0  0  0  0  0  0  0  0
    3.1340   -3.5770   16.8810 C   0  0  0  0  0  0  0  0  0  0  0  0
    4.2350   -1.4320   16.2330 C   0  0  0  0  0  0  0  0  0  0  0  0
    5.4620   -0.6020   15.8620 C   0  0  1  0  0  0  0  0  0  0  0  0
    5.7710   -0.4170   14.3510 C   0  0  2  0  0  0  0  0  0  0  0  0
    4.3300   -0.0810   12.3590 C   0  0  0  0  0  0  0  0  0  0  0  0
    3.2950    0.7960   11.6200 C   0  0  1  0  0  0  0  0  0  0  0  0
    3.0540    2.0240   12.3770 O   0  0  0  0  0  0  0  0  0  0  0  0
    7.0880    0.3950   14.2010 C   0  0  0  0  0  0  0  0  0  0  0  0
    3.2070    3.1560   11.5650 C   0  0  0  0  0  0  0  0  0  0  0  0
    2.9730    4.2520   11.9950 O   0  0  0  0  0  0  0  0  0  0  0  0
    3.5970    2.7380   10.2790 N   0  0  0  0  0  0  0  0  0  0  0  0
    3.7640    1.2560   10.2200 C   0  0  0  0  0  0  0  0  0  0  0  0
    3.9270    3.6140    9.2000 C   0  0  0  0  0  0  0  0  0  0  0  0
    4.9230    3.2640    8.2690 C   0  0  0  0  0  0  0  0  0  0  0  0
    5.2230    4.1660    7.2500 C   0  0  0  0  0  0  0  0  0  0  0  0
    4.5550    5.3960    7.1450 C   0  0  0  0  0  0  0  0  0  0  0  0
    3.5540    5.7340    8.0590 C   0  0  0  0  0  0  0  0  0  0  0  0
    3.2390    4.8400    9.0820 C   0  0  0  0  0  0  0  0  0  0  0  0
    4.8770    6.2450    6.1710 F   0  0  0  0  0  0  0  0  0  0  0  0
    6.1660    3.8550    6.3650 F   0  0  0  0  0  0  0  0  0  0  0  0
    7.0440   -6.8900   16.2330 H   0  0  0  0  0  0  0  0  0  0  0  0
    6.4030   -8.6060   17.7170 H   0  0  0  0  0  0  0  0  0  0  0  0
    8.0980   -8.7820   18.3060 H   0  0  0  0  0  0  0  0  0  0  0  0
    6.7640   -8.4480   19.4820 H   0  0  0  0  0  0  0  0  0  0  0  0
    5.6670   -3.4790   17.6670 H   0  0  0  0  0  0  0  0  0  0  0  0
    4.3810    1.1740   14.0500 H   0  0  0  0  0  0  0  0  0  0  0  0
    6.0660    0.9680   16.8990 H   0  0  0  0  0  0  0  0  0  0  0  0
    6.7430    2.8010   12.9610 H   0  0  0  0  0  0  0  0  0  0  0  0
    7.0800    3.3230   10.5540 H   0  0  0  0  0  0  0  0  0  0  0  0
    7.8740    1.5580    8.9940 H   0  0  0  0  0  0  0  0  0  0  0  0
    8.4280   -0.7080    9.8600 H   0  0  0  0  0  0  0  0  0  0  0  0
    8.1460   -1.2270   12.2750 H   0  0  0  0  0  0  0  0  0  0  0  0
    7.8110   -4.2950   17.6100 H   0  0  0  0  0  0  0  0  0  0  0  0
    4.2480   -3.2610   15.0090 H   0  0  0  0  0  0  0  0  0  0  0  0
    8.8540   -5.5690   14.9760 H   0  0  0  0  0  0  0  0  0  0  0  0
   10.3850   -3.5350   14.9470 H   0  0  0  0  0  0  0  0  0  0  0  0
    8.6480   -3.1300   14.6600 H   0  0  0  0  0  0  0  0  0  0  0  0
    9.4060   -2.8040   16.2710 H   0  0  0  0  0  0  0  0  0  0  0  0
   11.0430   -5.5210   16.2410 H   0  0  0  0  0  0  0  0  0  0  0  0
   10.1820   -4.9340   17.7080 H   0  0  0  0  0  0  0  0  0  0  0  0
    9.8270   -6.5780   17.0300 H   0  0  0  0  0  0  0  0  0  0  0  0
    1.7070   -7.5350   14.8420 H   0  0  0  0  0  0  0  0  0  0  0  0
    2.7690   -8.9570   16.5940 H   0  0  0  0  0  0  0  0  0  0  0  0
    4.0130   -7.8870   18.4640 H   0  0  0  0  0  0  0  0  0  0  0  0
    4.1940   -5.4120   18.5880 H   0  0  0  0  0  0  0  0  0  0  0  0
    1.8800   -5.0650   14.9590 H   0  0  0  0  0  0  0  0  0  0  0  0
    2.1920   -3.1110   16.5080 H   0  0  0  0  0  0  0  0  0  0  0  0
    3.2310   -3.2850   17.9600 H   0  0  0  0  0  0  0  0  0  0  0  0
    4.0730   -1.2240   17.3240 H   0  0  0  0  0  0  0  0  0  0  0  0
    3.3410   -1.0790   15.6690 H   0  0  0  0  0  0  0  0  0  0  0  0
    6.3750   -1.0070   16.3690 H   0  0  0  0  0  0  0  0  0  0  0  0
    5.9220   -1.4370   13.8990 H   0  0  0  0  0  0  0  0  0  0  0  0
    2.3040    0.2740   11.5930 H   0  0  0  0  0  0  0  0  0  0  0  0
    7.0150    1.3240   14.8240 H   0  0  0  0  0  0  0  0  0  0  0  0
    7.9220   -0.2040   14.6460 H   0  0  0  0  0  0  0  0  0  0  0  0
    3.1090    0.8410    9.4080 H   0  0  0  0  0  0  0  0  0  0  0  0
    4.8330    0.9830   10.0130 H   0  0  0  0  0  0  0  0  0  0  0  0
    5.4550    2.3100    8.3260 H   0  0  0  0  0  0  0  0  0  0  0  0
    3.0140    6.6860    7.9820 H   0  0  0  0  0  0  0  0  0  0  0  0
    2.4460    5.1140    9.7860 H   0  0  0  0  0  0  0  0  0  0  0  0
  1  5  1  0  0  0  0
  1 16  1  0  0  0  0
  1 48  1  0  0  0  0
  2  5  2  0  0  0  0
  3  5  1  0  0  0  0
  3 49  1  0  0  0  0
  3 50  1  0  0  0  0
  3 51  1  0  0  0  0
  4 17  2  0  0  0  0
  6 17  1  0  0  0  0
  6 18  1  0  0  0  0
  6 52  1  0  0  0  0
  7 10  2  0  0  0  0
  7 15  1  0  0  0  0
  7 35  1  0  0  0  0
  8 31  1  0  0  0  0
  8 32  1  0  0  0  0
  8 53  1  0  0  0  0
  9 30  1  0  0  0  0
  9 54  1  0  0  0  0
 10 12  1  0  0  0  0
 10 55  1  0  0  0  0
 11 32  2  0  0  0  0
 12 13  2  0  0  0  0
 12 56  1  0  0  0  0
 13 14  1  0  0  0  0
 13 57  1  0  0  0  0
 14 15  2  0  0  0  0
 14 58  1  0  0  0  0
 15 59  1  0  0  0  0
 16 17  1  0  0  0  0
 16 19  1  0  0  0  0
 16 60  1  1  0  0  0
 18 28  1  0  0  0  0
 18 29  1  0  0  0  0
 18 61  1  6  0  0  0
 19 20  1  0  0  0  0
 19 21  1  0  0  0  0
 19 62  1  0  0  0  0
 20 63  1  0  0  0  0
 20 64  1  0  0  0  0
 20 65  1  0  0  0  0
 21 66  1  0  0  0  0
 21 67  1  0  0  0  0
 21 68  1  0  0  0  0
 22 23  2  0  0  0  0
 22 27  1  0  0  0  0
 22 69  1  0  0  0  0
 23 24  1  0  0  0  0
 23 70  1  0  0  0  0
 24 25  2  0  0  0  0
 24 71  1  0  0  0  0
 25 26  1  0  0  0  0
 25 72  1  0  0  0  0
 26 27  2  0  0  0  0
 26 28  1  0  0  0  0
 27 73  1  0  0  0  0
 28 74  1  0  0  0  0
 28 75  1  0  0  0  0
 29 30  1  0  0  0  0
 29 76  1  0  0  0  0
 29 77  1  0  0  0  0
 30 31  1  0  0  0  0
 30 78  1  1  0  0  0
 31 35  1  0  0  0  0
 31 79  1  6  0  0  0
 32 33  1  0  0  0  0
 33 34  1  0  0  0  0
 33 39  1  0  0  0  0
 33 80  1  6  0  0  0
 34 36  1  0  0  0  0
 35 81  1  0  0  0  0
 35 82  1  0  0  0  0
 36 37  2  0  0  0  0
 36 38  1  0  0  0  0
 38 39  1  0  0  0  0
 38 40  1  0  0  0  0
 39 83  1  0  0  0  0
 39 84  1  0  0  0  0
 40 41  2  0  0  0  0
 40 45  1  0  0  0  0
 41 42  1  0  0  0  0
 41 85  1  0  0  0  0
 42 43  2  0  0  0  0
 42 47  1  0  0  0  0
 43 44  1  0  0  0  0
 43 46  1  0  0  0  0
 44 45  2  0  0  0  0
 44 86  1  0  0  0  0
 45 87  1  0  0  0  0
M  END
>  <charge>
0

>  <KI_NM>
2.13

>  <number_of_rotatable_bonds>
17

>  <lm5_entropy_jk>
42.441311785015955

>  <ligand_crystal_conformation>
A

$$$$
