4I5C
 OpenBabel11252210453D

 38 41  0  0  1  0  0  0  0  0999 V2000
  -17.2590   27.1910   -1.1150 C   0  0  0  0  0  0  0  0  0  0  0  0
  -17.9980   26.0350   -1.3330 C   0  0  0  0  0  0  0  0  0  0  0  0
  -17.3190   24.9270   -0.7880 N   0  0  0  0  0  0  0  0  0  0  0  0
  -16.1460   25.3850   -0.1890 C   0  0  0  0  0  0  0  0  0  0  0  0
  -16.0850   26.8120   -0.3960 C   0  0  0  0  0  0  0  0  0  0  0  0
  -14.9130   27.4210    0.0830 C   0  0  0  0  0  0  0  0  0  0  0  0
  -13.9000   26.6150    0.7150 C   0  0  0  0  0  0  0  0  0  0  0  0
  -14.0890   25.2070    0.8820 C   0  0  0  0  0  0  0  0  0  0  0  0
  -15.1880   24.5970    0.4410 N   0  0  0  0  0  0  0  0  0  0  0  0
  -12.8260   27.4780    1.0250 N   0  0  0  0  0  0  0  0  0  0  0  0
  -13.1070   28.6670    0.6270 N   0  0  0  0  0  0  0  0  0  0  0  0
  -14.3820   28.7170    0.0780 N   0  0  0  0  0  0  0  0  0  0  0  0
  -14.9370   29.8550   -0.7020 C   0  0  2  0  0  0  0  0  0  0  0  0
  -14.7060   29.5950   -2.2060 C   0  0  0  0  0  0  0  0  0  0  0  0
  -15.2600   30.7720   -3.0100 C   0  0  0  0  0  0  0  0  0  0  0  0
  -14.6750   32.1170   -2.5500 C   0  0  0  0  0  0  0  0  0  0  0  0
  -14.8580   32.3200   -1.0880 N   0  0  0  0  0  0  0  0  0  0  0  0
  -14.3110   31.2060   -0.2580 C   0  0  0  0  0  0  0  0  0  0  0  0
  -15.8910   33.0990   -0.5360 C   0  0  0  0  0  0  0  0  0  0  0  0
  -16.0510   33.1060    0.6730 O   0  0  0  0  0  0  0  0  0  0  0  0
  -16.7160   34.0110   -1.4410 C   0  0  0  0  0  0  0  0  0  0  0  0
  -17.6680   34.7750   -0.6590 C   0  0  0  0  0  0  0  0  0  0  0  0
  -18.4200   35.3630   -0.0060 N   0  0  0  0  0  0  0  0  0  0  0  0
  -17.5300   28.1720   -1.4620 H   0  0  0  0  0  0  0  0  0  0  0  0
  -18.9330   25.9190   -1.8570 H   0  0  0  0  0  0  0  0  0  0  0  0
  -13.3210   24.5940    1.3800 H   0  0  0  0  0  0  0  0  0  0  0  0
  -16.0480   29.8780   -0.5040 H   0  0  0  0  0  0  0  0  0  0  0  0
  -15.2560   28.6700   -2.5230 H   0  0  0  0  0  0  0  0  0  0  0  0
  -13.6230   29.4640   -2.4250 H   0  0  0  0  0  0  0  0  0  0  0  0
  -16.3770   30.7880   -2.9030 H   0  0  0  0  0  0  0  0  0  0  0  0
  -15.0170   30.6200   -4.0880 H   0  0  0  0  0  0  0  0  0  0  0  0
  -13.5690   32.1420   -2.7550 H   0  0  0  0  0  0  0  0  0  0  0  0
  -15.1430   32.9470   -3.1380 H   0  0  0  0  0  0  0  0  0  0  0  0
  -14.5510   31.3950    0.8240 H   0  0  0  0  0  0  0  0  0  0  0  0
  -13.2020   31.1970   -0.4100 H   0  0  0  0  0  0  0  0  0  0  0  0
  -17.2760   33.3890   -2.2020 H   0  0  0  0  0  0  0  0  0  0  0  0
  -16.0540   34.7220   -2.0210 H   0  0  0  0  0  0  0  0  0  0  0  0
  -17.7290   23.9910   -0.7030 H   0  0  0  0  0  0  0  0  0  0  0  0
  1  2  2  0  0  0  0
  1  5  1  0  0  0  0
  2  3  1  0  0  0  0
  4  5  2  0  0  0  0
  4  9  1  0  0  0  0
  4  3  1  0  0  0  0
  5  6  1  0  0  0  0
  6  7  2  0  0  0  0
  6 12  1  0  0  0  0
  7  8  1  0  0  0  0
  7 10  1  0  0  0  0
  8  9  2  0  0  0  0
 10 11  2  0  0  0  0
 11 12  1  0  0  0  0
 13 14  1  0  0  0  0
 13 18  1  0  0  0  0
 13 12  1  0  0  0  0
 13 27  1  1  0  0  0
 14 15  1  0  0  0  0
 15 16  1  0  0  0  0
 16 17  1  0  0  0  0
 18 17  1  0  0  0  0
 19 21  1  0  0  0  0
 19 17  1  0  0  0  0
 19 20  2  0  0  0  0
 21 22  1  0  0  0  0
 22 23  3  0  0  0  0
 24  1  1  0  0  0  0
 25  2  1  0  0  0  0
 26  8  1  0  0  0  0
 28 14  1  0  0  0  0
 29 14  1  0  0  0  0
 30 15  1  0  0  0  0
 31 15  1  0  0  0  0
 32 16  1  0  0  0  0
 33 16  1  0  0  0  0
 34 18  1  0  0  0  0
 35 18  1  0  0  0  0
 36 21  1  0  0  0  0
 37 21  1  0  0  0  0
 38  3  1  0  0  0  0
M  END
>  <charge>
0

>  <pKi>
8.82

>  <number_of_rotatable_bonds>
3

>  <lm5_entropy_jk>
19.1780333427044

$$$$
