model16f
 OpenBabel11252210453D

 93 97  0  0  1  0  0  0  0  0999 V2000
    8.3600   -5.9070   18.1300 C   0  0  0  0  0  0  0  0  0  0  0  0
    5.3430    6.3790    6.5960 C   0  0  0  0  0  0  0  0  0  0  0  0
    7.6520   -4.8180   17.6270 O   0  0  0  0  0  0  0  0  0  0  0  0
    7.6460   -6.8570   18.8990 C   0  0  0  0  0  0  0  0  0  0  0  0
    5.2430    7.5850    6.7100 O   0  0  0  0  0  0  0  0  0  0  0  0
    6.5700   -3.4570   14.5010 O   0  0  0  0  0  0  0  0  0  0  0  0
    8.2670   -8.0360   19.3270 C   0  0  0  0  0  0  0  0  0  0  0  0
    5.6600   -3.2530   16.5670 N   0  0  0  0  0  0  0  0  0  0  0  0
    9.6160   -8.2730   19.0410 C   0  0  0  0  0  0  0  0  0  0  0  0
    7.3480    0.8560   12.7830 C   0  0  0  0  0  0  0  0  0  0  0  0
    4.6500    0.4800   13.5970 N   0  0  0  0  0  0  0  0  0  0  0  0
    4.8280    0.9250   16.2860 O   0  0  0  0  0  0  0  0  0  0  0  0
   10.3510   -7.3050   18.3460 C   0  0  0  0  0  0  0  0  0  0  0  0
    7.3650    2.1900   12.3510 C   0  0  0  0  0  0  0  0  0  0  0  0
    3.5280   -1.3510   12.8740 O   0  0  0  0  0  0  0  0  0  0  0  0
    9.7490   -6.1180   17.9020 C   0  0  0  0  0  0  0  0  0  0  0  0
    7.6580    2.4980   11.0140 C   0  0  0  0  0  0  0  0  0  0  0  0
    6.1910   -6.6560   19.2600 C   0  0  0  0  0  0  0  0  0  0  0  0
    7.9260    1.4630   10.1040 C   0  0  0  0  0  0  0  0  0  0  0  0
   10.6670   -5.0970   17.2580 C   0  0  0  0  0  0  0  0  0  0  0  0
    7.9130    0.1260   10.5320 C   0  0  0  0  0  0  0  0  0  0  0  0
    7.6220   -0.1740   11.8730 C   0  0  0  0  0  0  0  0  0  0  0  0
    7.9150   -4.1810   16.3430 C   0  0  0  0  0  0  0  0  0  0  0  0
    6.6690   -3.5910   15.7080 C   0  0  0  0  0  0  0  0  0  0  0  0
    4.3370   -2.8270   16.1340 C   0  0  1  0  0  0  0  0  0  0  0  0
    6.0210    5.8030    5.4070 C   0  0  0  0  0  0  0  0  0  0  0  0
    2.3440   -6.8390   15.5610 C   0  0  0  0  0  0  0  0  0  0  0  0
    2.5200   -7.6880   16.6660 C   0  0  0  0  0  0  0  0  0  0  0  0
    2.9330   -7.1590   17.8970 C   0  0  0  0  0  0  0  0  0  0  0  0
    3.1930   -5.7840   18.0120 C   0  0  0  0  0  0  0  0  0  0  0  0
    3.0570   -4.9400   16.9010 C   0  0  0  0  0  0  0  0  0  0  0  0
    2.6160   -5.4660   15.6800 C   0  0  0  0  0  0  0  0  0  0  0  0
    3.2750   -3.4540   17.0580 C   0  0  0  0  0  0  0  0  0  0  0  0
    4.1530   -1.3060   16.2520 C   0  0  0  0  0  0  0  0  0  0  0  0
    5.3000   -0.3490   15.8950 C   0  0  1  0  0  0  0  0  0  0  0  0
    5.6770   -0.2360   14.3870 C   0  0  2  0  0  0  0  0  0  0  0  0
    3.7080   -0.1470   12.8220 C   0  0  0  0  0  0  0  0  0  0  0  0
    2.9730    0.7490   11.8060 C   0  0  1  0  0  0  0  0  0  0  0  0
    2.3220    1.9060   12.3980 O   0  0  0  0  0  0  0  0  0  0  0  0
    7.0130    0.5330   14.2230 C   0  0  0  0  0  0  0  0  0  0  0  0
    2.4210    3.0260   11.6200 C   0  0  0  0  0  0  0  0  0  0  0  0
    1.8730    4.0840   11.8560 O   0  0  0  0  0  0  0  0  0  0  0  0
    3.3600    2.7820   10.6390 N   0  0  0  0  0  0  0  0  0  0  0  0
    3.8830    1.4090   10.7530 C   0  0  0  0  0  0  0  0  0  0  0  0
    3.8260    3.6890    9.6350 C   0  0  0  0  0  0  0  0  0  0  0  0
    5.0420    3.4400    8.9840 C   0  0  0  0  0  0  0  0  0  0  0  0
    5.5390    4.2960    7.9920 C   0  0  0  0  0  0  0  0  0  0  0  0
    4.8130    5.4430    7.6340 C   0  0  0  0  0  0  0  0  0  0  0  0
    3.5860    5.7090    8.2690 C   0  0  0  0  0  0  0  0  0  0  0  0
    3.0950    4.8230    9.2460 C   0  0  0  0  0  0  0  0  0  0  0  0
    5.9670   -6.9810   20.2800 H   0  0  0  0  0  0  0  0  0  0  0  0
    5.5560   -7.2200   18.5710 H   0  0  0  0  0  0  0  0  0  0  0  0
    5.9010   -5.6030   19.1790 H   0  0  0  0  0  0  0  0  0  0  0  0
    5.8160   -3.5290   17.5300 H   0  0  0  0  0  0  0  0  0  0  0  0
    4.7430    1.4800   13.4670 H   0  0  0  0  0  0  0  0  0  0  0  0
    4.8850    1.4300   15.4520 H   0  0  0  0  0  0  0  0  0  0  0  0
    7.1580    2.9930   13.0550 H   0  0  0  0  0  0  0  0  0  0  0  0
    7.6950   -8.7770   19.8830 H   0  0  0  0  0  0  0  0  0  0  0  0
    7.6770    3.5370   10.6830 H   0  0  0  0  0  0  0  0  0  0  0  0
    8.1400    1.7000    9.0630 H   0  0  0  0  0  0  0  0  0  0  0  0
   10.0960   -9.1950   19.3730 H   0  0  0  0  0  0  0  0  0  0  0  0
    8.1340   -0.6710    9.8260 H   0  0  0  0  0  0  0  0  0  0  0  0
   11.4020   -7.4890   18.1420 H   0  0  0  0  0  0  0  0  0  0  0  0
    7.6170   -1.2060   12.2130 H   0  0  0  0  0  0  0  0  0  0  0  0
    8.6330   -3.3620   16.4370 H   0  0  0  0  0  0  0  0  0  0  0  0
    4.1700   -3.1410   15.0870 H   0  0  0  0  0  0  0  0  0  0  0  0
    8.2860   -4.9100   15.6150 H   0  0  0  0  0  0  0  0  0  0  0  0
   11.7060   -5.2730   17.5580 H   0  0  0  0  0  0  0  0  0  0  0  0
   10.4310   -4.0840   17.5950 H   0  0  0  0  0  0  0  0  0  0  0  0
   10.6160   -5.1380   16.1650 H   0  0  0  0  0  0  0  0  0  0  0  0
    7.0730    5.6150    5.6400 H   0  0  0  0  0  0  0  0  0  0  0  0
    6.4930    4.0700    7.5120 H   0  0  0  0  0  0  0  0  0  0  0  0
    2.0020   -7.2420   14.6130 H   0  0  0  0  0  0  0  0  0  0  0  0
    2.3300   -8.7570   16.5770 H   0  0  0  0  0  0  0  0  0  0  0  0
    3.0490   -7.8120   18.7630 H   0  0  0  0  0  0  0  0  0  0  0  0
    3.4990   -5.3720   18.9700 H   0  0  0  0  0  0  0  0  0  0  0  0
    2.4640   -4.8050   14.8330 H   0  0  0  0  0  0  0  0  0  0  0  0
    2.3110   -2.9590   16.8970 H   0  0  0  0  0  0  0  0  0  0  0  0
    3.5370   -3.2370   18.0990 H   0  0  0  0  0  0  0  0  0  0  0  0
    3.9420   -1.0960   17.3030 H   0  0  0  0  0  0  0  0  0  0  0  0
    3.2580   -1.0100   15.6920 H   0  0  0  0  0  0  0  0  0  0  0  0
    6.1980   -0.6250   16.4750 H   0  0  0  0  0  0  0  0  0  0  0  0
    5.7940   -1.2580   13.9930 H   0  0  0  0  0  0  0  0  0  0  0  0
    2.2250    0.0990   11.3260 H   0  0  0  0  0  0  0  0  0  0  0  0
    6.9930    1.4540   14.8190 H   0  0  0  0  0  0  0  0  0  0  0  0
    7.8310   -0.0480   14.6690 H   0  0  0  0  0  0  0  0  0  0  0  0
    3.8140    0.8910    9.7870 H   0  0  0  0  0  0  0  0  0  0  0  0
    4.9400    1.4170   11.0780 H   0  0  0  0  0  0  0  0  0  0  0  0
    5.6230    2.5620    9.2340 H   0  0  0  0  0  0  0  0  0  0  0  0
    5.9500    6.5120    4.5750 H   0  0  0  0  0  0  0  0  0  0  0  0
    3.0090    6.5960    7.9970 H   0  0  0  0  0  0  0  0  0  0  0  0
    2.1300    5.0360    9.6920 H   0  0  0  0  0  0  0  0  0  0  0  0
    5.5280    4.8680    5.1260 H   0  0  0  0  0  0  0  0  0  0  0  0
  1  3  1  0  0  0  0
  1  4  2  0  0  0  0
  1 16  1  0  0  0  0
  2  5  2  0  0  0  0
  2 26  1  0  0  0  0
  2 48  1  0  0  0  0
  3 23  1  0  0  0  0
  4  7  1  0  0  0  0
  4 18  1  0  0  0  0
  6 24  2  0  0  0  0
  7  9  2  0  0  0  0
  7 58  1  0  0  0  0
  8 24  1  0  0  0  0
  8 25  1  0  0  0  0
  8 54  1  0  0  0  0
  9 13  1  0  0  0  0
  9 61  1  0  0  0  0
 10 14  2  0  0  0  0
 10 22  1  0  0  0  0
 10 40  1  0  0  0  0
 11 36  1  0  0  0  0
 11 37  1  0  0  0  0
 11 55  1  0  0  0  0
 12 35  1  0  0  0  0
 12 56  1  0  0  0  0
 13 16  2  0  0  0  0
 13 63  1  0  0  0  0
 14 17  1  0  0  0  0
 14 57  1  0  0  0  0
 15 37  2  0  0  0  0
 16 20  1  0  0  0  0
 17 19  2  0  0  0  0
 17 59  1  0  0  0  0
 18 51  1  0  0  0  0
 18 52  1  0  0  0  0
 18 53  1  0  0  0  0
 19 21  1  0  0  0  0
 19 60  1  0  0  0  0
 20 68  1  0  0  0  0
 20 69  1  0  0  0  0
 20 70  1  0  0  0  0
 21 22  2  0  0  0  0
 21 62  1  0  0  0  0
 22 64  1  0  0  0  0
 23 24  1  0  0  0  0
 23 65  1  0  0  0  0
 23 67  1  0  0  0  0
 25 33  1  0  0  0  0
 25 34  1  0  0  0  0
 25 66  1  6  0  0  0
 26 71  1  0  0  0  0
 26 90  1  0  0  0  0
 26 93  1  0  0  0  0
 27 28  2  0  0  0  0
 27 32  1  0  0  0  0
 27 73  1  0  0  0  0
 28 29  1  0  0  0  0
 28 74  1  0  0  0  0
 29 30  2  0  0  0  0
 29 75  1  0  0  0  0
 30 31  1  0  0  0  0
 30 76  1  0  0  0  0
 31 32  2  0  0  0  0
 31 33  1  0  0  0  0
 32 77  1  0  0  0  0
 33 78  1  0  0  0  0
 33 79  1  0  0  0  0
 34 35  1  0  0  0  0
 34 80  1  0  0  0  0
 34 81  1  0  0  0  0
 35 36  1  0  0  0  0
 35 82  1  1  0  0  0
 36 40  1  0  0  0  0
 36 83  1  6  0  0  0
 37 38  1  0  0  0  0
 38 39  1  0  0  0  0
 38 44  1  0  0  0  0
 38 84  1  6  0  0  0
 39 41  1  0  0  0  0
 40 85  1  0  0  0  0
 40 86  1  0  0  0  0
 41 42  2  0  0  0  0
 41 43  1  0  0  0  0
 43 44  1  0  0  0  0
 43 45  1  0  0  0  0
 44 87  1  0  0  0  0
 44 88  1  0  0  0  0
 45 46  2  0  0  0  0
 45 50  1  0  0  0  0
 46 47  1  0  0  0  0
 46 89  1  0  0  0  0
 47 48  2  0  0  0  0
 47 72  1  0  0  0  0
 48 49  1  0  0  0  0
 49 50  2  0  0  0  0
 49 91  1  0  0  0  0
 50 92  1  0  0  0  0
M  END
>  <charge>
0

>  <KI_NM>
39.87

>  <number_of_rotatable_bonds>
17

>  <lm5_entropy_jk>
43.769413455775634

>  <ligand_crystal_conformation>
A

$$$$
