JF49a_4xzi.pdb
 OpenBabel11252210453D

 34 35  0  0  0  0  0  0  0  0999 V2000
   16.5350  -10.1130   13.7180 C   0  0  0  0  0  0  0  0  0  0  0  0
   17.1360  -11.1190   14.4760 C   0  0  0  0  0  0  0  0  0  0  0  0
   16.6060  -10.2110   12.2970 C   0  0  0  0  0  0  0  0  0  0  0  0
   17.8910  -12.1350   13.8590 C   0  0  0  0  0  0  0  0  0  0  0  0
   17.3470  -11.2300   11.6790 C   0  0  0  0  0  0  0  0  0  0  0  0
   18.0070  -12.1790   12.4700 C   0  0  0  0  0  0  0  0  0  0  0  0
   15.7760   -8.9400   14.3060 C   0  0  0  0  0  0  0  0  0  0  0  0
   16.6450   -8.0540   15.1290 N   0  0  0  0  0  0  0  0  0  0  0  0
   17.5850   -7.1780   14.4610 C   0  0  0  0  0  0  0  0  0  0  0  0
   16.3580   -7.9560   16.5300 C   0  0  0  0  0  0  0  0  0  0  0  0
   18.4120   -6.3890   15.3390 C   0  0  0  0  0  0  0  0  0  0  0  0
   17.2500   -7.1300   17.3030 N   0  0  0  0  0  0  0  0  0  0  0  0
   18.2170   -6.3410   16.6870 C   0  0  0  0  0  0  0  0  0  0  0  0
   17.5960   -7.1850   13.2390 O   0  0  0  0  0  0  0  0  0  0  0  0
   16.7770   -6.7630   18.6650 C   0  0  0  0  0  0  0  0  0  0  0  0
   15.5310   -5.7970   18.5270 C   0  0  0  0  0  0  0  0  0  0  0  0
   14.9960   -5.4200   19.5820 O   0  5  0  0  0  0  0  0  0  0  0  0
   15.1680   -5.5280   17.3690 O   0  0  0  0  0  0  0  0  0  0  0  0
   15.4550   -8.5880   17.0420 O   0  0  0  0  0  0  0  0  0  0  0  0
   15.7800   -9.3690   11.5980 O   0  0  0  0  0  0  0  0  0  0  0  0
   16.3930   -8.3460   10.7620 C   0  0  0  0  0  0  0  0  0  0  0  0
   16.8910  -11.1860   16.3570 Br  0  0  0  0  0  0  0  0  0  0  0  0
   18.7530  -13.4630   14.9150 Br  0  0  0  0  0  0  0  0  0  0  0  0
   19.0490  -13.5410   11.6370 Br  0  0  0  0  0  0  0  0  0  0  0  0
   17.4720  -11.3430    9.7850 Br  0  0  0  0  0  0  0  0  0  0  0  0
   17.1780   -7.8130   11.3440 H   0  0  0  0  0  0  0  0  0  0  0  0
   14.9170   -9.3240   14.9290 H   0  0  0  0  0  0  0  0  0  0  0  0
   19.2250   -5.8230   14.8790 H   0  0  0  0  0  0  0  0  0  0  0  0
   18.8690   -5.7350   17.3390 H   0  0  0  0  0  0  0  0  0  0  0  0
   17.6200   -6.3060   19.2350 H   0  0  0  0  0  0  0  0  0  0  0  0
   15.5080   -7.7040   10.5550 H   0  0  0  0  0  0  0  0  0  0  0  0
   15.3660   -8.3300   13.4470 H   0  0  0  0  0  0  0  0  0  0  0  0
   16.4780   -7.6980   19.2020 H   0  0  0  0  0  0  0  0  0  0  0  0
   16.7870   -8.7980    9.8320 H   0  0  0  0  0  0  0  0  0  0  0  0
  1  2  2  0  0  0  0
  1  3  1  0  0  0  0
  1  7  1  0  0  0  0
  2  4  1  0  0  0  0
  2 22  1  0  0  0  0
  3  5  2  0  0  0  0
  3 20  1  0  0  0  0
  4  6  2  0  0  0  0
  4 23  1  0  0  0  0
  5  6  1  0  0  0  0
  5 25  1  0  0  0  0
  6 24  1  0  0  0  0
  7  8  1  0  0  0  0
  7 27  1  0  0  0  0
  7 32  1  0  0  0  0
  8  9  1  0  0  0  0
  8 10  1  0  0  0  0
  9 11  1  0  0  0  0
  9 14  2  0  0  0  0
 10 12  1  0  0  0  0
 10 19  2  0  0  0  0
 11 13  2  0  0  0  0
 11 28  1  0  0  0  0
 12 13  1  0  0  0  0
 12 15  1  0  0  0  0
 13 29  1  0  0  0  0
 15 16  1  0  0  0  0
 15 30  1  0  0  0  0
 15 33  1  0  0  0  0
 16 17  1  0  0  0  0
 16 18  2  0  0  0  0
 20 21  1  0  0  0  0
 21 26  1  0  0  0  0
 21 31  1  0  0  0  0
 21 34  1  0  0  0  0
M  CHG  1  17  -1
M  END
>  <deltaG_kcalmol>
-6.88

>  <charge>
-1

>  <number_of_rotatable_bonds>
5

>  <lm5_entropy_jk>
34.09880934168806

$$$$
