3QTR
 OpenBabel11252210453D

 34 36  0  0  1  0  0  0  0  0999 V2000
   65.7530  154.3570  -50.2510 N   0  0  0  0  0  0  0  0  0  0  0  0
   67.2740  153.5860  -51.8220 N   0  0  0  0  0  0  0  0  0  0  0  0
   64.2440  154.6660  -48.5140 N   0  0  0  0  0  0  0  0  0  0  0  0
   66.8450  153.5870  -50.5610 C   0  0  0  0  0  0  0  0  0  0  0  0
   67.3320  152.7810  -49.5840 C   0  0  0  0  0  0  0  0  0  0  0  0
   68.4450  151.8440  -49.7690 C   0  0  0  0  0  0  0  0  0  0  0  0
   68.6840  150.8110  -48.6900 C   0  0  0  0  0  0  0  0  0  0  0  0
   67.6190  150.0610  -48.1440 C   0  0  0  0  0  0  0  0  0  0  0  0
   67.8530  149.0960  -47.1520 C   0  0  0  0  0  0  0  0  0  0  0  0
   69.1590  148.8440  -46.7140 C   0  0  0  0  0  0  0  0  0  0  0  0
   70.2300  149.5530  -47.2770 C   0  0  0  0  0  0  0  0  0  0  0  0
   69.9970  150.5340  -48.2600 C   0  0  0  0  0  0  0  0  0  0  0  0
   65.3800  154.0930  -49.0110 C   0  0  0  0  0  0  0  0  0  0  0  0
   63.5010  154.5610  -47.3430 C   0  0  0  0  0  0  0  0  0  0  0  0
   62.6070  155.5950  -47.0260 C   0  0  0  0  0  0  0  0  0  0  0  0
   61.8240  155.5490  -45.8600 C   0  0  0  0  0  0  0  0  0  0  0  0
   61.9270  154.4480  -44.9970 C   0  0  0  0  0  0  0  0  0  0  0  0
   62.7990  153.3950  -45.3110 C   0  0  0  0  0  0  0  0  0  0  0  0
   63.5720  153.4470  -46.4850 C   0  0  0  0  0  0  0  0  0  0  0  0
   69.1420  151.8770  -50.7690 O   0  0  0  0  0  0  0  0  0  0  0  0
   66.3970  152.9700  -48.1340 S   0  0  0  0  0  0  0  0  0  0  0  0
   66.9540  154.2810  -52.4850 H   0  0  0  0  0  0  0  0  0  0  0  0
   68.1230  153.0590  -51.9770 H   0  0  0  0  0  0  0  0  0  0  0  0
   66.6040  150.2220  -48.4940 H   0  0  0  0  0  0  0  0  0  0  0  0
   67.0220  148.5380  -46.7240 H   0  0  0  0  0  0  0  0  0  0  0  0
   69.3390  148.0860  -45.9520 H   0  0  0  0  0  0  0  0  0  0  0  0
   71.2400  149.3310  -46.9500 H   0  0  0  0  0  0  0  0  0  0  0  0
   70.8290  151.0850  -48.6970 H   0  0  0  0  0  0  0  0  0  0  0  0
   63.8060  155.2640  -49.2090 H   0  0  0  0  0  0  0  0  0  0  0  0
   62.5190  156.4490  -47.6920 H   0  0  0  0  0  0  0  0  0  0  0  0
   61.1410  156.3670  -45.6260 H   0  0  0  0  0  0  0  0  0  0  0  0
   61.3330  154.4120  -44.0830 H   0  0  0  0  0  0  0  0  0  0  0  0
   62.8800  152.5380  -44.6420 H   0  0  0  0  0  0  0  0  0  0  0  0
   64.2070  152.6010  -46.7190 H   0  0  0  0  0  0  0  0  0  0  0  0
  1  4  1  0  0  0  0
  1 13  2  0  0  0  0
  2  4  1  0  0  0  0
  2 22  1  0  0  0  0
  2 23  1  0  0  0  0
  3 13  1  0  0  0  0
  3 14  1  0  0  0  0
  3 29  1  0  0  0  0
  4  5  2  0  0  0  0
  5 21  1  0  0  0  0
  6  5  1  0  0  0  0
  6  7  1  0  0  0  0
  6 20  2  0  0  0  0
  7  8  2  0  0  0  0
  7 12  1  0  0  0  0
  8  9  1  0  0  0  0
  8 24  1  0  0  0  0
  9 10  2  0  0  0  0
  9 25  1  0  0  0  0
 10 11  1  0  0  0  0
 10 26  1  0  0  0  0
 11 12  2  0  0  0  0
 11 27  1  0  0  0  0
 12 28  1  0  0  0  0
 13 21  1  0  0  0  0
 14 15  2  0  0  0  0
 14 19  1  0  0  0  0
 15 16  1  0  0  0  0
 15 30  1  0  0  0  0
 16 17  2  0  0  0  0
 16 31  1  0  0  0  0
 17 18  1  0  0  0  0
 17 32  1  0  0  0  0
 18 19  2  0  0  0  0
 18 33  1  0  0  0  0
 19 34  1  0  0  0  0
M  END
>  <lm5_entropy_jk>
21.136452688881562

>  <number_of_rotatable_bonds>
4

>  <IC50_NM>
930

>  <charge>
0

$$$$
