model23a
 OpenBabel11252210453D

 84 89  0  0  1  0  0  0  0  0999 V2000
    1.8460    3.1830    9.7880 C   0  0  0  0  0  0  0  0  0  0  0  0
    2.6800    5.0930    8.9490 O   0  0  0  0  0  0  0  0  0  0  0  0
    1.4990    4.7200    8.1630 C   0  0  0  0  0  0  0  0  0  0  0  0
    5.4080    0.8290   16.6140 O   0  0  0  0  0  0  0  0  0  0  0  0
    3.8770   -0.9880   12.5300 O   0  0  0  0  0  0  0  0  0  0  0  0
    4.6560    0.7030   13.8250 N   0  0  0  0  0  0  0  0  0  0  0  0
    1.0840    3.4170    8.6890 O   0  0  0  0  0  0  0  0  0  0  0  0
    3.5060   -4.9880   16.1340 C   0  0  0  0  0  0  0  0  0  0  0  0
    6.0570   -3.2840   16.1560 N   0  0  0  0  0  0  0  0  0  0  0  0
    3.8870   -6.0270   16.9940 C   0  0  0  0  0  0  0  0  0  0  0  0
    7.1100   -2.8490   14.1870 O   0  0  0  0  0  0  0  0  0  0  0  0
    1.7260    2.1200   10.6820 C   0  0  0  0  0  0  0  0  0  0  0  0
    3.6940   -7.3640   16.6130 C   0  0  0  0  0  0  0  0  0  0  0  0
    2.7880    4.1640    9.9360 C   0  0  0  0  0  0  0  0  0  0  0  0
    3.1220   -7.6540   15.3660 C   0  0  0  0  0  0  0  0  0  0  0  0
    2.6400    2.0560   11.7520 C   0  0  0  0  0  0  0  0  0  0  0  0
    2.7200   -6.6090   14.5160 C   0  0  0  0  0  0  0  0  0  0  0  0
    3.6270    3.0660   11.8920 C   0  0  0  0  0  0  0  0  0  0  0  0
    2.9130   -5.2780   14.9020 C   0  0  0  0  0  0  0  0  0  0  0  0
    2.5040    0.9410   12.7700 C   0  0  0  0  0  0  0  0  0  0  0  0
    3.7440    0.1330   12.9880 C   0  0  0  0  0  0  0  0  0  0  0  0
    5.8380    0.0180   14.3440 C   0  0  1  0  0  0  0  0  0  0  0  0
    3.7080    4.1450   10.9820 C   0  0  0  0  0  0  0  0  0  0  0  0
    8.1160    0.1970   10.4760 C   0  0  0  0  0  0  0  0  0  0  0  0
    7.9470    1.4600    9.8850 C   0  0  0  0  0  0  0  0  0  0  0  0
    7.5140    2.5470   10.6620 C   0  0  0  0  0  0  0  0  0  0  0  0
    7.2430    2.3640   12.0300 C   0  0  0  0  0  0  0  0  0  0  0  0
    7.3900    1.0990   12.6180 C   0  0  0  0  0  0  0  0  0  0  0  0
    7.8290    0.0180   11.8400 C   0  0  0  0  0  0  0  0  0  0  0  0
    7.0860    0.8990   14.0900 C   0  0  0  0  0  0  0  0  0  0  0  0
    5.6930   -0.3390   15.8580 C   0  0  2  0  0  0  0  0  0  0  0  0
    4.5610   -1.3130   16.2070 C   0  0  0  0  0  0  0  0  0  0  0  0
    4.7350   -2.7760   15.7930 C   0  0  2  0  0  0  0  0  0  0  0  0
    7.1330   -3.3440   15.2970 C   0  0  0  0  0  0  0  0  0  0  0  0
    8.3390   -4.1810   15.7400 C   0  0  1  0  0  0  0  0  0  0  0  0
    8.8460   -3.8890   17.0700 O   0  0  0  0  0  0  0  0  0  0  0  0
    3.6550   -3.5560   16.5600 C   0  0  0  0  0  0  0  0  0  0  0  0
    9.1380   -5.0270   17.7700 C   0  0  0  0  0  0  0  0  0  0  0  0
    9.6250   -5.0790   18.8750 O   0  0  0  0  0  0  0  0  0  0  0  0
    8.5810   -6.0800   17.1050 N   0  0  0  0  0  0  0  0  0  0  0  0
    8.0070   -5.6710   15.8340 C   0  0  0  0  0  0  0  0  0  0  0  0
    8.4830   -7.4010   17.5920 C   0  0  0  0  0  0  0  0  0  0  0  0
    7.2290   -8.0120   17.7060 C   0  0  0  0  0  0  0  0  0  0  0  0
    7.1100   -9.3370   18.1550 C   0  0  0  0  0  0  0  0  0  0  0  0
    8.2660  -10.0540   18.4980 C   0  0  0  0  0  0  0  0  0  0  0  0
    9.5290   -9.4460   18.3990 C   0  0  0  0  0  0  0  0  0  0  0  0
    9.6300   -8.1180   17.9480 C   0  0  0  0  0  0  0  0  0  0  0  0
    0.9570    1.3690   10.5360 H   0  0  0  0  0  0  0  0  0  0  0  0
    4.4660    4.9230   11.0700 H   0  0  0  0  0  0  0  0  0  0  0  0
    4.3570    3.0050   12.6920 H   0  0  0  0  0  0  0  0  0  0  0  0
    1.7400    4.6610    7.0920 H   0  0  0  0  0  0  0  0  0  0  0  0
    0.6920    5.4540    8.3140 H   0  0  0  0  0  0  0  0  0  0  0  0
    4.4730    1.6250   14.2010 H   0  0  0  0  0  0  0  0  0  0  0  0
    6.1900   -3.6630   17.0840 H   0  0  0  0  0  0  0  0  0  0  0  0
    4.4500   -1.2810   17.2950 H   0  0  0  0  0  0  0  0  0  0  0  0
    4.3180   -5.7960   17.9660 H   0  0  0  0  0  0  0  0  0  0  0  0
    3.9820   -8.1740   17.2830 H   0  0  0  0  0  0  0  0  0  0  0  0
    2.9900   -8.6940   15.0690 H   0  0  0  0  0  0  0  0  0  0  0  0
    2.2660   -6.8170   13.5520 H   0  0  0  0  0  0  0  0  0  0  0  0
    2.5870   -4.4690   14.2540 H   0  0  0  0  0  0  0  0  0  0  0  0
    1.7380    0.2220   12.4700 H   0  0  0  0  0  0  0  0  0  0  0  0
    5.9640   -0.9180   13.7890 H   0  0  0  0  0  0  0  0  0  0  0  0
    2.1940    1.3250   13.7390 H   0  0  0  0  0  0  0  0  0  0  0  0
    6.2120    0.9120   17.1880 H   0  0  0  0  0  0  0  0  0  0  0  0
    8.4600   -0.6410    9.8760 H   0  0  0  0  0  0  0  0  0  0  0  0
    8.1460    1.6000    8.8240 H   0  0  0  0  0  0  0  0  0  0  0  0
    7.3870    3.5280   10.2050 H   0  0  0  0  0  0  0  0  0  0  0  0
    6.9070    3.2020   12.6360 H   0  0  0  0  0  0  0  0  0  0  0  0
    7.9420   -0.9580   12.3030 H   0  0  0  0  0  0  0  0  0  0  0  0
    7.9510    0.4480   14.5880 H   0  0  0  0  0  0  0  0  0  0  0  0
    6.9520    1.8630   14.5900 H   0  0  0  0  0  0  0  0  0  0  0  0
    6.6500   -0.7730   16.1930 H   0  0  0  0  0  0  0  0  0  0  0  0
    3.6250   -0.9230   15.7940 H   0  0  0  0  0  0  0  0  0  0  0  0
    4.5810   -2.8770   14.7020 H   0  0  0  0  0  0  0  0  0  0  0  0
    9.1200   -3.9970   14.9880 H   0  0  0  0  0  0  0  0  0  0  0  0
    3.8510   -3.5100   17.6360 H   0  0  0  0  0  0  0  0  0  0  0  0
    2.6850   -3.0620   16.4330 H   0  0  0  0  0  0  0  0  0  0  0  0
    8.4590   -6.2390   15.0070 H   0  0  0  0  0  0  0  0  0  0  0  0
    6.9170   -5.8430   15.8270 H   0  0  0  0  0  0  0  0  0  0  0  0
    6.3420   -7.4560   17.4210 H   0  0  0  0  0  0  0  0  0  0  0  0
    6.1280   -9.8070   18.2300 H   0  0  0  0  0  0  0  0  0  0  0  0
    8.1820  -11.0840   18.8490 H   0  0  0  0  0  0  0  0  0  0  0  0
   10.4270  -10.0010   18.6740 H   0  0  0  0  0  0  0  0  0  0  0  0
   10.6060   -7.6460   17.8730 H   0  0  0  0  0  0  0  0  0  0  0  0
  1 14  2  0  0  0  0
  1 12  1  0  0  0  0
  2 14  1  0  0  0  0
  3  7  1  0  0  0  0
  3  2  1  0  0  0  0
  4 64  1  0  0  0  0
  5 21  2  0  0  0  0
  6 22  1  0  0  0  0
  6 53  1  0  0  0  0
  7  1  1  0  0  0  0
  8 37  1  0  0  0  0
  8 10  1  0  0  0  0
  9 54  1  0  0  0  0
 10 56  1  0  0  0  0
 11 34  2  0  0  0  0
 12 16  2  0  0  0  0
 13 10  2  0  0  0  0
 13 57  1  0  0  0  0
 14 23  1  0  0  0  0
 15 13  1  0  0  0  0
 16 18  1  0  0  0  0
 16 20  1  0  0  0  0
 17 19  1  0  0  0  0
 17 15  2  0  0  0  0
 18 50  1  0  0  0  0
 19  8  2  0  0  0  0
 20 21  1  0  0  0  0
 20 63  1  0  0  0  0
 21  6  1  0  0  0  0
 22 62  1  6  0  0  0
 22 31  1  0  0  0  0
 23 49  1  0  0  0  0
 23 18  2  0  0  0  0
 24 29  1  0  0  0  0
 25 24  2  0  0  0  0
 25 26  1  0  0  0  0
 26 27  2  0  0  0  0
 27 28  1  0  0  0  0
 27 68  1  0  0  0  0
 28 30  1  0  0  0  0
 29 69  1  0  0  0  0
 29 28  2  0  0  0  0
 30 70  1  0  0  0  0
 30 22  1  0  0  0  0
 30 71  1  0  0  0  0
 31 72  1  1  0  0  0
 31  4  1  0  0  0  0
 31 32  1  0  0  0  0
 32 55  1  0  0  0  0
 33 74  1  6  0  0  0
 33 32  1  0  0  0  0
 33  9  1  0  0  0  0
 33 37  1  0  0  0  0
 34 35  1  0  0  0  0
 34  9  1  0  0  0  0
 35 75  1  6  0  0  0
 35 36  1  0  0  0  0
 36 38  1  0  0  0  0
 37 76  1  0  0  0  0
 38 39  2  0  0  0  0
 40 42  1  0  0  0  0
 40 38  1  0  0  0  0
 41 35  1  0  0  0  0
 41 79  1  0  0  0  0
 41 40  1  0  0  0  0
 42 47  1  0  0  0  0
 43 42  2  0  0  0  0
 43 44  1  0  0  0  0
 44 45  2  0  0  0  0
 45 46  1  0  0  0  0
 45 82  1  0  0  0  0
 46 83  1  0  0  0  0
 47 84  1  0  0  0  0
 47 46  2  0  0  0  0
 48 12  1  0  0  0  0
 51  3  1  0  0  0  0
 52  3  1  0  0  0  0
 58 15  1  0  0  0  0
 59 17  1  0  0  0  0
 60 19  1  0  0  0  0
 61 20  1  0  0  0  0
 65 24  1  0  0  0  0
 66 25  1  0  0  0  0
 67 26  1  0  0  0  0
 73 32  1  0  0  0  0
 77 37  1  0  0  0  0
 78 41  1  0  0  0  0
 80 43  1  0  0  0  0
 81 44  1  0  0  0  0
M  END
>  <charge>
0

>  <KI_NM>
657

>  <number_of_rotatable_bonds>
15

>  <lm5_entropy_jk>
24.46231099087854

>  <ligand_crystal_conformation>
B

$$$$
