model23a
 OpenBabel11252210453D

 84 89  0  0  1  0  0  0  0  0999 V2000
    2.3510    2.8000    9.4090 C   0  0  0  0  0  0  0  0  0  0  0  0
    3.3490    4.6960    8.7240 O   0  0  0  0  0  0  0  0  0  0  0  0
    2.3970    4.2820    7.6870 C   0  0  0  0  0  0  0  0  0  0  0  0
    5.1860    0.5310   16.6290 O   0  0  0  0  0  0  0  0  0  0  0  0
    3.8550   -1.3610   12.3850 O   0  0  0  0  0  0  0  0  0  0  0  0
    4.4270    0.2510   13.8690 N   0  0  0  0  0  0  0  0  0  0  0  0
    1.7990    3.0350    8.1840 O   0  0  0  0  0  0  0  0  0  0  0  0
    3.3690   -5.3240   16.9530 C   0  0  0  0  0  0  0  0  0  0  0  0
    5.7740   -3.6320   16.5020 N   0  0  0  0  0  0  0  0  0  0  0  0
    3.9540   -6.0990   17.9660 C   0  0  0  0  0  0  0  0  0  0  0  0
    6.7330   -3.4530   14.4550 O   0  0  0  0  0  0  0  0  0  0  0  0
    2.0640    1.7450   10.2810 C   0  0  0  0  0  0  0  0  0  0  0  0
    3.8480   -7.4990   17.9370 C   0  0  0  0  0  0  0  0  0  0  0  0
    3.2620    3.7730    9.7200 C   0  0  0  0  0  0  0  0  0  0  0  0
    3.1510   -8.1230   16.8900 C   0  0  0  0  0  0  0  0  0  0  0  0
    2.7730    1.6850   11.5010 C   0  0  0  0  0  0  0  0  0  0  0  0
    2.5590   -7.3470   15.8800 C   0  0  0  0  0  0  0  0  0  0  0  0
    3.7160    2.6960   11.8160 C   0  0  0  0  0  0  0  0  0  0  0  0
    2.6750   -5.9480   15.9090 C   0  0  0  0  0  0  0  0  0  0  0  0
    2.4700    0.5720   12.4880 C   0  0  0  0  0  0  0  0  0  0  0  0
    3.6530   -0.2670   12.8720 C   0  0  0  0  0  0  0  0  0  0  0  0
    5.6200   -0.4030   14.4320 C   0  0  1  0  0  0  0  0  0  0  0  0
    3.9710    3.7620   10.9210 C   0  0  0  0  0  0  0  0  0  0  0  0
    7.9530    0.0550   10.5710 C   0  0  0  0  0  0  0  0  0  0  0  0
    7.8530    1.3690   10.0850 C   0  0  0  0  0  0  0  0  0  0  0  0
    7.4430    2.4060   10.9380 C   0  0  0  0  0  0  0  0  0  0  0  0
    7.1190    2.1200   12.2740 C   0  0  0  0  0  0  0  0  0  0  0  0
    7.1860    0.8030   12.7560 C   0  0  0  0  0  0  0  0  0  0  0  0
    7.6150   -0.2260   11.9060 C   0  0  0  0  0  0  0  0  0  0  0  0
    6.8570    0.5120   14.2050 C   0  0  0  0  0  0  0  0  0  0  0  0
    5.4570   -0.6950   15.9580 C   0  0  2  0  0  0  0  0  0  0  0  0
    4.3060   -1.6300   16.3670 C   0  0  0  0  0  0  0  0  0  0  0  0
    4.4510   -3.1430   16.1310 C   0  0  2  0  0  0  0  0  0  0  0  0
    6.7730   -3.8840   15.5920 C   0  0  0  0  0  0  0  0  0  0  0  0
    7.9090   -4.8110   16.0510 C   0  0  1  0  0  0  0  0  0  0  0  0
    8.5490   -4.4010   17.2910 O   0  0  0  0  0  0  0  0  0  0  0  0
    3.4080   -3.8190   17.0380 C   0  0  0  0  0  0  0  0  0  0  0  0
    8.9550   -5.4730   18.0340 C   0  0  0  0  0  0  0  0  0  0  0  0
    9.6050   -5.4170   19.0590 O   0  0  0  0  0  0  0  0  0  0  0  0
    8.3550   -6.5960   17.5110 N   0  0  0  0  0  0  0  0  0  0  0  0
    7.4990   -6.2640   16.3640 C   0  0  0  0  0  0  0  0  0  0  0  0
    8.5690   -7.9310   17.9390 C   0  0  0  0  0  0  0  0  0  0  0  0
    7.5220   -8.8630   17.8890 C   0  0  0  0  0  0  0  0  0  0  0  0
    7.7250  -10.1960   18.2870 C   0  0  0  0  0  0  0  0  0  0  0  0
    8.9910  -10.5980   18.7410 C   0  0  0  0  0  0  0  0  0  0  0  0
   10.0470   -9.6750   18.7930 C   0  0  0  0  0  0  0  0  0  0  0  0
    9.8330   -8.3490   18.3810 C   0  0  0  0  0  0  0  0  0  0  0  0
    1.3280    0.9990   10.0080 H   0  0  0  0  0  0  0  0  0  0  0  0
    4.7050    4.5350   11.1380 H   0  0  0  0  0  0  0  0  0  0  0  0
    4.2780    2.6460   12.7440 H   0  0  0  0  0  0  0  0  0  0  0  0
    2.9160    4.1170    6.7310 H   0  0  0  0  0  0  0  0  0  0  0  0
    1.6220    5.0510    7.5470 H   0  0  0  0  0  0  0  0  0  0  0  0
    4.1700    1.1460   14.2490 H   0  0  0  0  0  0  0  0  0  0  0  0
    5.9060   -3.9960   17.4360 H   0  0  0  0  0  0  0  0  0  0  0  0
    4.1820   -1.4810   17.4440 H   0  0  0  0  0  0  0  0  0  0  0  0
    4.4690   -5.6130   18.7930 H   0  0  0  0  0  0  0  0  0  0  0  0
    4.2900   -8.0980   18.7340 H   0  0  0  0  0  0  0  0  0  0  0  0
    3.0610   -9.2090   16.8680 H   0  0  0  0  0  0  0  0  0  0  0  0
    2.0100   -7.8270   15.0760 H   0  0  0  0  0  0  0  0  0  0  0  0
    2.1980   -5.3450   15.1420 H   0  0  0  0  0  0  0  0  0  0  0  0
    1.7490   -0.1320   12.0670 H   0  0  0  0  0  0  0  0  0  0  0  0
    5.7860   -1.3600   13.9170 H   0  0  0  0  0  0  0  0  0  0  0  0
    2.0120    0.9590   13.3980 H   0  0  0  0  0  0  0  0  0  0  0  0
    6.0710    0.7660   17.0210 H   0  0  0  0  0  0  0  0  0  0  0  0
    8.2870   -0.7430    9.9120 H   0  0  0  0  0  0  0  0  0  0  0  0
    8.0870    1.5880    9.0450 H   0  0  0  0  0  0  0  0  0  0  0  0
    7.3760    3.4280   10.5640 H   0  0  0  0  0  0  0  0  0  0  0  0
    6.8090    2.9240   12.9380 H   0  0  0  0  0  0  0  0  0  0  0  0
    7.6860   -1.2420   12.2860 H   0  0  0  0  0  0  0  0  0  0  0  0
    7.7340    0.0610   14.6860 H   0  0  0  0  0  0  0  0  0  0  0  0
    6.7100    1.4520   14.7480 H   0  0  0  0  0  0  0  0  0  0  0  0
    6.4070   -1.1180   16.3270 H   0  0  0  0  0  0  0  0  0  0  0  0
    3.3770   -1.2730   15.9080 H   0  0  0  0  0  0  0  0  0  0  0  0
    4.2500   -3.3850   15.0690 H   0  0  0  0  0  0  0  0  0  0  0  0
    8.6420   -4.7930   15.2300 H   0  0  0  0  0  0  0  0  0  0  0  0
    3.5800   -3.5340   18.0830 H   0  0  0  0  0  0  0  0  0  0  0  0
    2.4120   -3.4250   16.8060 H   0  0  0  0  0  0  0  0  0  0  0  0
    7.6860   -6.9430   15.5170 H   0  0  0  0  0  0  0  0  0  0  0  0
    6.4320   -6.3360   16.6370 H   0  0  0  0  0  0  0  0  0  0  0  0
    6.5420   -8.5560   17.5370 H   0  0  0  0  0  0  0  0  0  0  0  0
    6.9030  -10.9130   18.2450 H   0  0  0  0  0  0  0  0  0  0  0  0
    9.1520  -11.6290   19.0580 H   0  0  0  0  0  0  0  0  0  0  0  0
   11.0300   -9.9860   19.1490 H   0  0  0  0  0  0  0  0  0  0  0  0
   10.6600   -7.6450   18.4030 H   0  0  0  0  0  0  0  0  0  0  0  0
  1 14  2  0  0  0  0
  1 12  1  0  0  0  0
  2 14  1  0  0  0  0
  3  7  1  0  0  0  0
  3  2  1  0  0  0  0
  4 64  1  0  0  0  0
  5 21  2  0  0  0  0
  6 22  1  0  0  0  0
  6 53  1  0  0  0  0
  7  1  1  0  0  0  0
  8 37  1  0  0  0  0
  8 10  1  0  0  0  0
  9 54  1  0  0  0  0
 10 56  1  0  0  0  0
 11 34  2  0  0  0  0
 12 16  2  0  0  0  0
 13 10  2  0  0  0  0
 13 57  1  0  0  0  0
 14 23  1  0  0  0  0
 15 13  1  0  0  0  0
 16 18  1  0  0  0  0
 16 20  1  0  0  0  0
 17 19  1  0  0  0  0
 17 15  2  0  0  0  0
 18 50  1  0  0  0  0
 19  8  2  0  0  0  0
 20 21  1  0  0  0  0
 20 63  1  0  0  0  0
 21  6  1  0  0  0  0
 22 62  1  6  0  0  0
 22 31  1  0  0  0  0
 23 49  1  0  0  0  0
 23 18  2  0  0  0  0
 24 29  1  0  0  0  0
 25 24  2  0  0  0  0
 25 26  1  0  0  0  0
 26 27  2  0  0  0  0
 27 28  1  0  0  0  0
 27 68  1  0  0  0  0
 28 30  1  0  0  0  0
 29 69  1  0  0  0  0
 29 28  2  0  0  0  0
 30 70  1  0  0  0  0
 30 22  1  0  0  0  0
 30 71  1  0  0  0  0
 31 72  1  1  0  0  0
 31  4  1  0  0  0  0
 31 32  1  0  0  0  0
 32 55  1  0  0  0  0
 33 74  1  6  0  0  0
 33 32  1  0  0  0  0
 33  9  1  0  0  0  0
 33 37  1  0  0  0  0
 34 35  1  0  0  0  0
 34  9  1  0  0  0  0
 35 75  1  6  0  0  0
 35 36  1  0  0  0  0
 36 38  1  0  0  0  0
 37 76  1  0  0  0  0
 38 39  2  0  0  0  0
 40 42  1  0  0  0  0
 40 38  1  0  0  0  0
 41 35  1  0  0  0  0
 41 79  1  0  0  0  0
 41 40  1  0  0  0  0
 42 47  1  0  0  0  0
 43 42  2  0  0  0  0
 43 44  1  0  0  0  0
 44 45  2  0  0  0  0
 45 46  1  0  0  0  0
 45 82  1  0  0  0  0
 46 83  1  0  0  0  0
 47 84  1  0  0  0  0
 47 46  2  0  0  0  0
 48 12  1  0  0  0  0
 51  3  1  0  0  0  0
 52  3  1  0  0  0  0
 58 15  1  0  0  0  0
 59 17  1  0  0  0  0
 60 19  1  0  0  0  0
 61 20  1  0  0  0  0
 65 24  1  0  0  0  0
 66 25  1  0  0  0  0
 67 26  1  0  0  0  0
 73 32  1  0  0  0  0
 77 37  1  0  0  0  0
 78 41  1  0  0  0  0
 80 43  1  0  0  0  0
 81 44  1  0  0  0  0
M  END
>  <charge>
0

>  <KI_NM>
657

>  <number_of_rotatable_bonds>
15

>  <lm5_entropy_jk>
24.46231099087854

>  <ligand_crystal_conformation>
B

$$$$
