2aqu_B.pdb
 OpenBabel11252210453D

103105  0  0  1  0  0  0  0  0999 V2000
    2.9180    1.2440   12.2520 C   0  0  1  0  0  0  0  0  0  0  0  0
    3.5110    1.9130   11.0740 N   0  0  0  0  0  0  0  0  0  0  0  0
    3.9990   -0.9790   12.2440 O   0  0  0  0  0  0  0  0  0  0  0  0
    4.3510   -2.9390   16.0230 N   0  0  0  0  0  0  0  0  0  0  0  0
    5.5360   -3.3930   16.6590 N   0  0  0  0  0  0  0  0  0  0  0  0
    4.6660    0.5150   13.8250 N   0  0  0  0  0  0  0  0  0  0  0  0
    7.0760   -6.3110   17.1060 N   0  0  0  0  0  0  0  0  0  0  0  0
    2.6820  -10.0040   17.4760 N   0  0  0  0  0  0  0  0  0  0  0  0
    3.5700    3.6200    9.6100 O   0  0  0  0  0  0  0  0  0  0  0  0
    7.4190   -8.2580   18.1800 O   0  0  0  0  0  0  0  0  0  0  0  0
    1.1000   -0.0960   13.3070 C   0  0  0  0  0  0  0  0  0  0  0  0
    8.9170   -4.6590   16.3930 C   0  0  0  0  0  0  0  0  0  0  0  0
    7.4500   -4.8950   16.9090 C   0  0  1  0  0  0  0  0  0  0  0  0
    5.7400   -0.3470   14.3670 C   0  0  2  0  0  0  0  0  0  0  0  0
    5.4910   -0.6260   15.8750 C   0  0  2  0  0  0  0  0  0  0  0  0
    3.0230   -9.3320   16.3350 C   0  0  0  0  0  0  0  0  0  0  0  0
    0.5000    1.8790   11.8610 C   0  0  0  0  0  0  0  0  0  0  0  0
    3.0580   -7.8520   16.4300 C   0  0  0  0  0  0  0  0  0  0  0  0
    3.1140   -5.0500   16.5900 C   0  0  0  0  0  0  0  0  0  0  0  0
    7.4030    0.6340   12.7360 C   0  0  0  0  0  0  0  0  0  0  0  0
    6.3850   -4.2840   15.9610 C   0  0  0  0  0  0  0  0  0  0  0  0
    7.4040   -6.8840   18.3440 C   0  0  0  0  0  0  0  0  0  0  0  0
    3.2720    3.2860   10.9230 C   0  0  0  0  0  0  0  0  0  0  0  0
    4.2380   -1.4460   16.2210 C   0  0  0  0  0  0  0  0  0  0  0  0
    3.1250   -3.5460   16.6930 C   0  0  0  0  0  0  0  0  0  0  0  0
    7.1250    0.3290   14.1820 C   0  0  0  0  0  0  0  0  0  0  0  0
    1.4630    0.6860   12.0320 C   0  0  0  0  0  0  0  0  0  0  0  0
    3.9120    0.1460   12.7100 C   0  0  0  0  0  0  0  0  0  0  0  0
    2.4280   -7.0730   15.4470 C   0  0  0  0  0  0  0  0  0  0  0  0
    3.7030   -7.2210   17.5060 C   0  0  0  0  0  0  0  0  0  0  0  0
    2.4560   -5.6800   15.5250 C   0  0  0  0  0  0  0  0  0  0  0  0
    3.7280   -5.8280   17.5840 C   0  0  0  0  0  0  0  0  0  0  0  0
    3.3160  -10.0090   15.1340 C   0  0  0  0  0  0  0  0  0  0  0  0
    7.1530    1.9220   12.2330 C   0  0  0  0  0  0  0  0  0  0  0  0
    7.8840   -0.3640   11.8740 C   0  0  0  0  0  0  0  0  0  0  0  0
    2.6240  -11.3600   17.4370 C   0  0  0  0  0  0  0  0  0  0  0  0
    3.2500  -11.4040   15.1090 C   0  0  0  0  0  0  0  0  0  0  0  0
    7.3530    2.2000   10.8800 C   0  0  0  0  0  0  0  0  0  0  0  0
    8.0800   -0.0800   10.5200 C   0  0  0  0  0  0  0  0  0  0  0  0
    2.8990  -12.0940   16.2720 C   0  0  0  0  0  0  0  0  0  0  0  0
    7.8040    1.1960   10.0170 C   0  0  0  0  0  0  0  0  0  0  0  0
    9.8980   -5.0260   17.5240 C   0  0  0  0  0  0  0  0  0  0  0  0
    9.2060   -5.5200   15.1550 C   0  0  0  0  0  0  0  0  0  0  0  0
    9.0430   -3.1670   16.0310 C   0  0  0  0  0  0  0  0  0  0  0  0
    5.2280    0.6390   16.5460 O   0  0  0  0  0  0  0  0  0  0  0  0
    1.3840   -0.2160   10.7940 C   0  0  0  0  0  0  0  0  0  0  0  0
    6.3190   -4.4520   14.7650 O   0  0  0  0  0  0  0  0  0  0  0  0
    7.4510   -9.0710   19.3830 C   0  0  0  0  0  0  0  0  0  0  0  0
    7.5860   -6.3040   19.3980 O   0  0  0  0  0  0  0  0  0  0  0  0
    3.6780    5.0320    9.2930 C   0  0  0  0  0  0  0  0  0  0  0  0
    2.9270    4.0880   11.7710 O   0  0  0  0  0  0  0  0  0  0  0  0
    2.8440    2.0110   13.0700 H   0  0  0  0  0  0  0  0  0  0  0  0
    3.5720    1.3390   10.2060 H   0  0  0  0  0  0  0  0  0  0  0  0
    5.5590   -3.3570   17.7030 H   0  0  0  0  0  0  0  0  0  0  0  0
    4.6840    1.4820   14.1780 H   0  0  0  0  0  0  0  0  0  0  0  0
    7.1220   -6.9220   16.2630 H   0  0  0  0  0  0  0  0  0  0  0  0
    0.0120   -0.3140   13.3180 H   0  0  0  0  0  0  0  0  0  0  0  0
    1.6600   -1.0570   13.3470 H   0  0  0  0  0  0  0  0  0  0  0  0
    1.3510    0.4930   14.2100 H   0  0  0  0  0  0  0  0  0  0  0  0
    7.3670   -4.3940   17.9110 H   0  0  0  0  0  0  0  0  0  0  0  0
    5.7450   -1.3340   13.8310 H   0  0  0  0  0  0  0  0  0  0  0  0
    6.4090   -1.0710   16.3310 H   0  0  0  0  0  0  0  0  0  0  0  0
   -0.5530    1.5120   11.8310 H   0  0  0  0  0  0  0  0  0  0  0  0
    0.5840    2.5920   12.7050 H   0  0  0  0  0  0  0  0  0  0  0  0
    0.6990    2.4130   10.9080 H   0  0  0  0  0  0  0  0  0  0  0  0
    4.0330   -1.2110   17.3020 H   0  0  0  0  0  0  0  0  0  0  0  0
    3.3730   -1.1090   15.5940 H   0  0  0  0  0  0  0  0  0  0  0  0
    2.2380   -3.1160   16.1570 H   0  0  0  0  0  0  0  0  0  0  0  0
    3.0510   -3.2490   17.7780 H   0  0  0  0  0  0  0  0  0  0  0  0
    7.9140   -0.3400   14.6060 H   0  0  0  0  0  0  0  0  0  0  0  0
    7.1570    1.2690   14.7910 H   0  0  0  0  0  0  0  0  0  0  0  0
    1.9170   -7.5490   14.6140 H   0  0  0  0  0  0  0  0  0  0  0  0
    4.1860   -7.8120   18.2900 H   0  0  0  0  0  0  0  0  0  0  0  0
    1.9540   -5.0810   14.7650 H   0  0  0  0  0  0  0  0  0  0  0  0
    4.2260   -5.3420   18.4270 H   0  0  0  0  0  0  0  0  0  0  0  0
    3.5900   -9.4670   14.2280 H   0  0  0  0  0  0  0  0  0  0  0  0
    6.7990    2.7080   12.9040 H   0  0  0  0  0  0  0  0  0  0  0  0
    8.1080   -1.3570   12.2620 H   0  0  0  0  0  0  0  0  0  0  0  0
    2.3490  -11.8770   18.3720 H   0  0  0  0  0  0  0  0  0  0  0  0
    3.4710  -11.9540   14.1880 H   0  0  0  0  0  0  0  0  0  0  0  0
    7.1580    3.2040   10.4950 H   0  0  0  0  0  0  0  0  0  0  0  0
    8.4500   -0.8560    9.8520 H   0  0  0  0  0  0  0  0  0  0  0  0
    2.8400  -13.1860   16.2780 H   0  0  0  0  0  0  0  0  0  0  0  0
    7.9360    1.4120    8.9560 H   0  0  0  0  0  0  0  0  0  0  0  0
   10.9320   -4.7190   17.2450 H   0  0  0  0  0  0  0  0  0  0  0  0
    9.6290   -4.5080   18.4660 H   0  0  0  0  0  0  0  0  0  0  0  0
    9.9060   -6.1230   17.6970 H   0  0  0  0  0  0  0  0  0  0  0  0
   10.1840   -5.2290   14.7180 H   0  0  0  0  0  0  0  0  0  0  0  0
    9.2460   -6.6000   15.4100 H   0  0  0  0  0  0  0  0  0  0  0  0
    8.3920   -5.3590   14.4120 H   0  0  0  0  0  0  0  0  0  0  0  0
   10.1150   -2.8840   15.9700 H   0  0  0  0  0  0  0  0  0  0  0  0
    8.5690   -2.9600   15.0460 H   0  0  0  0  0  0  0  0  0  0  0  0
    8.5510   -2.5260   16.7930 H   0  0  0  0  0  0  0  0  0  0  0  0
    6.1220    0.8850   16.9930 H   0  0  0  0  0  0  0  0  0  0  0  0
    1.4940    0.3820    9.8640 H   0  0  0  0  0  0  0  0  0  0  0  0
    2.1980   -0.9790   10.8250 H   0  0  0  0  0  0  0  0  0  0  0  0
    0.3970   -0.7210   10.7570 H   0  0  0  0  0  0  0  0  0  0  0  0
    7.4440  -10.1010   18.9580 H   0  0  0  0  0  0  0  0  0  0  0  0
    8.3820   -8.8680   19.9510 H   0  0  0  0  0  0  0  0  0  0  0  0
    6.5430   -8.8610   19.9870 H   0  0  0  0  0  0  0  0  0  0  0  0
    3.9910    4.9960    8.2220 H   0  0  0  0  0  0  0  0  0  0  0  0
    2.6900    5.5220    9.4150 H   0  0  0  0  0  0  0  0  0  0  0  0
    4.4540    5.5020    9.9320 H   0  0  0  0  0  0  0  0  0  0  0  0
  1 27  1  0  0  0  0
  1 28  1  0  0  0  0
  1 52  1  1  0  0  0
  1  2  1  0  0  0  0
  2 23  1  0  0  0  0
  2 53  1  0  0  0  0
  3 28  2  0  0  0  0
  4  5  1  0  0  0  0
  4 24  1  0  0  0  0
  4 25  1  0  0  0  0
  5 54  1  0  0  0  0
  5 21  1  0  0  0  0
  6 55  1  0  0  0  0
  6 14  1  0  0  0  0
  6 28  1  0  0  0  0
  7 56  1  0  0  0  0
  7 13  1  0  0  0  0
  7 22  1  0  0  0  0
  8 16  2  0  0  0  0
  8 36  1  0  0  0  0
  9 23  1  0  0  0  0
  9 50  1  0  0  0  0
 10 22  1  0  0  0  0
 10 48  1  0  0  0  0
 11 57  1  0  0  0  0
 11 58  1  0  0  0  0
 11 59  1  0  0  0  0
 11 27  1  0  0  0  0
 12 13  1  0  0  0  0
 12 42  1  0  0  0  0
 12 43  1  0  0  0  0
 12 44  1  0  0  0  0
 13 60  1  1  0  0  0
 13 21  1  0  0  0  0
 14 61  1  6  0  0  0
 14 15  1  0  0  0  0
 14 26  1  0  0  0  0
 15 62  1  1  0  0  0
 15 24  1  0  0  0  0
 15 45  1  0  0  0  0
 16 18  1  0  0  0  0
 16 33  1  0  0  0  0
 17 63  1  0  0  0  0
 17 64  1  0  0  0  0
 17 65  1  0  0  0  0
 17 27  1  0  0  0  0
 18 29  2  0  0  0  0
 18 30  1  0  0  0  0
 19 25  1  0  0  0  0
 19 31  2  0  0  0  0
 19 32  1  0  0  0  0
 20 26  1  0  0  0  0
 20 34  2  0  0  0  0
 20 35  1  0  0  0  0
 21 47  2  0  0  0  0
 22 49  2  0  0  0  0
 23 51  2  0  0  0  0
 24 66  1  0  0  0  0
 24 67  1  0  0  0  0
 25 68  1  0  0  0  0
 25 69  1  0  0  0  0
 26 70  1  0  0  0  0
 26 71  1  0  0  0  0
 27 46  1  0  0  0  0
 29 72  1  0  0  0  0
 29 31  1  0  0  0  0
 30 73  1  0  0  0  0
 30 32  2  0  0  0  0
 31 74  1  0  0  0  0
 32 75  1  0  0  0  0
 33 76  1  0  0  0  0
 33 37  2  0  0  0  0
 34 77  1  0  0  0  0
 34 38  1  0  0  0  0
 35 78  1  0  0  0  0
 35 39  2  0  0  0  0
 36 79  1  0  0  0  0
 36 40  2  0  0  0  0
 37 80  1  0  0  0  0
 37 40  1  0  0  0  0
 38 81  1  0  0  0  0
 38 41  2  0  0  0  0
 39 82  1  0  0  0  0
 39 41  1  0  0  0  0
 40 83  1  0  0  0  0
 41 84  1  0  0  0  0
 42 85  1  0  0  0  0
 42 86  1  0  0  0  0
 42 87  1  0  0  0  0
 43 88  1  0  0  0  0
 43 89  1  0  0  0  0
 43 90  1  0  0  0  0
 44 91  1  0  0  0  0
 44 92  1  0  0  0  0
 44 93  1  0  0  0  0
 45 94  1  0  0  0  0
 46 95  1  0  0  0  0
 46 96  1  0  0  0  0
 46 97  1  0  0  0  0
 48 98  1  0  0  0  0
 48 99  1  0  0  0  0
 48100  1  0  0  0  0
 50101  1  0  0  0  0
 50102  1  0  0  0  0
 50103  1  0  0  0  0
M  END
>  <charge>
0

>  <KI_NM>
0.024

>  <number_of_rotatable_bonds>
22

>  <lm5_entropy_jk>
56.95019395789525

>  <ligand_crystal_conformation>
B

$$$$
