ra12.pdb
 OpenBabel11252210453D

 37 38  0  0  1  0  0  0  0  0999 V2000
   -4.1100    5.2610   12.0210 C   0  0  0  0  0  0  0  0  0  0  0  0
   -5.3420    4.0120   15.3980 C   0  0  0  0  0  0  0  0  0  0  0  0
   -5.3490    1.0720   15.7670 N   0  5  0  0  0  0  0  0  0  0  0  0
   -4.7050    2.8500   17.6130 O   0  0  0  0  0  0  0  0  0  0  0  0
   -4.7650    3.9950   14.1350 C   0  0  0  0  0  0  0  0  0  0  0  0
   -7.0170    2.5490   16.5740 O   0  0  0  0  0  0  0  0  0  0  0  0
   -4.7830    5.1580   13.3410 C   0  0  0  0  0  0  0  0  0  0  0  0
   -5.3620    6.3480   13.8190 C   0  0  0  0  0  0  0  0  0  0  0  0
   -5.8830    6.3880   15.1090 C   0  0  0  0  0  0  0  0  0  0  0  0
   -5.8620    5.2180   15.8730 C   0  0  0  0  0  0  0  0  0  0  0  0
   -4.5180    5.9290   11.0930 O   0  0  0  0  0  0  0  0  0  0  0  0
   -2.8000    4.6400   12.0050 N   0  0  0  0  0  0  0  0  0  0  0  0
   -1.7390    5.2800   11.1570 C   0  0  1  0  0  0  0  0  0  0  0  0
   -1.4510    6.6840   11.6690 C   0  0  0  0  0  0  0  0  0  0  0  0
   -1.4850    7.0630   13.0320 C   0  0  0  0  0  0  0  0  0  0  0  0
   -1.7290    6.1940   14.0560 O   0  0  0  0  0  0  0  0  0  0  0  0
   -1.2680    8.3990   13.4310 C   0  0  0  0  0  0  0  0  0  0  0  0
   -1.1000    7.6650   10.7310 C   0  0  0  0  0  0  0  0  0  0  0  0
   -0.9330    9.3460   12.4690 C   0  0  0  0  0  0  0  0  0  0  0  0
   -0.8330    8.9780   11.1210 C   0  0  0  0  0  0  0  0  0  0  0  0
   -0.4690    4.4220   11.2160 C   0  0  0  0  0  0  0  0  0  0  0  0
   -6.4940    5.3220   17.4690 Cl  0  0  0  0  0  0  0  0  0  0  0  0
   -5.5470    2.5650   16.4510 S   0  0  0  0  0  0  0  0  0  0  0  0
   -4.2840    3.0940   13.7390 H   0  0  0  0  0  0  0  0  0  0  0  0
   -5.3860    7.2490   13.1990 H   0  0  0  0  0  0  0  0  0  0  0  0
   -6.2760    7.3230   15.5130 H   0  0  0  0  0  0  0  0  0  0  0  0
   -2.7790    3.6100   11.9670 H   0  0  0  0  0  0  0  0  0  0  0  0
   -2.0770    5.3470   10.0830 H   0  0  0  0  0  0  0  0  0  0  0  0
   -2.0080    5.2840   13.6860 H   0  0  0  0  0  0  0  0  0  0  0  0
   -1.3670    8.6900   14.4770 H   0  0  0  0  0  0  0  0  0  0  0  0
   -1.0190    7.4030    9.6700 H   0  0  0  0  0  0  0  0  0  0  0  0
   -0.7460   10.3840   12.7590 H   0  0  0  0  0  0  0  0  0  0  0  0
   -0.5490    9.7210   10.3730 H   0  0  0  0  0  0  0  0  0  0  0  0
   -4.3400    0.7430   15.9580 H   0  0  0  0  0  0  0  0  0  0  0  0
   -0.6490    3.3920   10.8380 H   0  0  0  0  0  0  0  0  0  0  0  0
    0.3040    4.8960   10.5620 H   0  0  0  0  0  0  0  0  0  0  0  0
   -0.0630    4.3700   12.2510 H   0  0  0  0  0  0  0  0  0  0  0  0
  1  7  1  0  0  0  0
  1 11  2  0  0  0  0
  1 12  1  0  0  0  0
  2  5  2  0  0  0  0
  2 10  1  0  0  0  0
  2 23  1  0  0  0  0
  3 23  1  0  0  0  0
  4 23  2  0  0  0  0
  5  7  1  0  0  0  0
  6 23  2  0  0  0  0
  7  8  2  0  0  0  0
  8  9  1  0  0  0  0
  9 10  2  0  0  0  0
 12 13  1  0  0  0  0
 13 14  1  0  0  0  0
 13 21  1  0  0  0  0
 13 28  1  6  0  0  0
 14 15  2  0  0  0  0
 14 18  1  0  0  0  0
 15 16  1  0  0  0  0
 15 17  1  0  0  0  0
 17 19  2  0  0  0  0
 18 20  2  0  0  0  0
 19 20  1  0  0  0  0
 22 10  1  0  0  0  0
 24  5  1  0  0  0  0
 25  8  1  0  0  0  0
 26  9  1  0  0  0  0
 27 12  1  0  0  0  0
 29 16  1  0  0  0  0
 30 17  1  0  0  0  0
 31 18  1  0  0  0  0
 32 19  1  0  0  0  0
 33 20  1  0  0  0  0
 34  3  1  0  0  0  0
 35 21  1  0  0  0  0
 36 21  1  0  0  0  0
 37 21  1  0  0  0  0
M  CHG  1   3  -1
M  END
>  <deltaG_kcalmol>
-10.7

>  <number_of_rotatable_bonds>
5

>  <charge>
-1

>  <lm5_entropy_jk>
31.79279622482855

$$$$
