5MO2
 OpenBabel11252210453D

 23 23  0  0  0  0  0  0  0  0999 V2000
   -1.4610   14.5840   16.0990 N   0  0  0  0  0  0  0  0  0  0  0  0
   -1.6990   12.5620   14.9860 N   0  3  0  0  0  0  0  0  0  0  0  0
   -2.5750   14.3940   14.0660 N   0  0  0  0  0  0  0  0  0  0  0  0
   -1.6630   15.9070   18.7350 C   0  0  0  0  0  0  0  0  0  0  0  0
   -2.3500   16.4680   17.4710 C   0  0  0  0  0  0  0  0  0  0  0  0
   -1.5540   16.0740   16.2070 C   0  0  0  0  0  0  0  0  0  0  0  0
   -0.7180   14.0360   17.2800 C   0  0  0  0  0  0  0  0  0  0  0  0
   -1.4540   14.3810   18.5930 C   0  0  0  0  0  0  0  0  0  0  0  0
   -1.9180   13.8480   15.0580 C   0  0  0  0  0  0  0  0  0  0  0  0
   -2.2490   16.1430   19.6360 H   0  0  0  0  0  0  0  0  0  0  0  0
   -0.6910   16.4060   18.8840 H   0  0  0  0  0  0  0  0  0  0  0  0
   -3.3790   16.1000   17.3870 H   0  0  0  0  0  0  0  0  0  0  0  0
   -2.4300   17.5660   17.5410 H   0  0  0  0  0  0  0  0  0  0  0  0
   -2.0220   16.5350   15.3260 H   0  0  0  0  0  0  0  0  0  0  0  0
   -0.5530   16.5210   16.2750 H   0  0  0  0  0  0  0  0  0  0  0  0
    0.2950   14.4560   17.3220 H   0  0  0  0  0  0  0  0  0  0  0  0
   -0.5970   12.9450   17.2260 H   0  0  0  0  0  0  0  0  0  0  0  0
   -0.8930   14.0050   19.4640 H   0  0  0  0  0  0  0  0  0  0  0  0
   -2.4130   13.8560   18.6030 H   0  0  0  0  0  0  0  0  0  0  0  0
   -2.1870   11.9950   14.2950 H   0  0  0  0  0  0  0  0  0  0  0  0
   -1.4210   12.0420   15.8090 H   0  0  0  0  0  0  0  0  0  0  0  0
   -2.9720   15.3220   14.1580 H   0  0  0  0  0  0  0  0  0  0  0  0
   -3.0690   13.7880   13.4090 H   0  0  0  0  0  0  0  0  0  0  0  0
  1  6  1  0  0  0  0
  1  7  1  0  0  0  0
  1  9  1  0  0  0  0
  2  9  2  0  0  0  0
  2 20  1  0  0  0  0
  2 21  1  0  0  0  0
  3  9  1  0  0  0  0
  3 22  1  0  0  0  0
  3 23  1  0  0  0  0
  4  5  1  0  0  0  0
  4  8  1  0  0  0  0
  4 10  1  0  0  0  0
  4 11  1  0  0  0  0
  5  6  1  0  0  0  0
  5 12  1  0  0  0  0
  5 13  1  0  0  0  0
  6 14  1  0  0  0  0
  6 15  1  0  0  0  0
  7  8  1  0  0  0  0
  7 16  1  0  0  0  0
  7 17  1  0  0  0  0
  8 18  1  0  0  0  0
  8 19  1  0  0  0  0
M  CHG  1   2   1
M  END
>  <number_of_rotatable_bonds>
1

>  <lm5_entropy_jk>
13.765940156892343

>  <deltaG_kcalmol>
-5.25

>  <charge>
1

$$$$
