5NY1
 OpenBabel11252210453D

 45 47  0  0  0  0  0  0  0  0999 V2000
    4.6660    9.7020   10.8830 C   0  0  0  0  0  0  0  0  0  0  0  0
    3.3180    9.7840   11.5220 C   0  0  0  0  0  0  0  0  0  0  0  0
    2.9880   10.9370   12.2800 C   0  0  0  0  0  0  0  0  0  0  0  0
    1.7560   11.1020   12.8990 C   0  0  0  0  0  0  0  0  0  0  0  0
    0.8140   10.0750   12.7710 C   0  0  0  0  0  0  0  0  0  0  0  0
   -0.5430    9.8540   13.2600 C   0  0  0  0  0  0  0  0  0  0  0  0
   -0.9130    8.6210   12.7940 C   0  0  0  0  0  0  0  0  0  0  0  0
    0.1050    8.0090   12.0180 O   0  0  0  0  0  0  0  0  0  0  0  0
    1.1600    8.9260   12.0130 C   0  0  0  0  0  0  0  0  0  0  0  0
    2.3930    8.7360   11.3710 C   0  0  0  0  0  0  0  0  0  0  0  0
    2.6730    7.5060   10.5790 C   0  0  0  0  0  0  0  0  0  0  0  0
   -2.1260    7.7580   12.9840 C   0  0  0  0  0  0  0  0  0  0  0  0
   -2.3860    7.2490   14.0560 O   0  0  0  0  0  0  0  0  0  0  0  0
   -2.8490    7.5710   11.8110 N   0  0  0  0  0  0  0  0  0  0  0  0
   -4.1890    6.9160   11.7210 C   0  0  0  0  0  0  0  0  0  0  0  0
   -4.4140    5.8460   12.7630 C   0  0  0  0  0  0  0  0  0  0  0  0
   -5.3340    6.0590   13.8000 C   0  0  0  0  0  0  0  0  0  0  0  0
   -5.5090    5.0880   14.7910 C   0  0  0  0  0  0  0  0  0  0  0  0
   -4.7800    3.8950   14.7590 C   0  0  0  0  0  0  0  0  0  0  0  0
   -3.8860    3.6720   13.7130 C   0  0  0  0  0  0  0  0  0  0  0  0
   -3.7110    4.6360   12.7100 C   0  0  0  0  0  0  0  0  0  0  0  0
   -5.0370    2.7250   16.0840 S   0  0  0  0  0  0  0  0  0  0  0  0
   -3.9820    2.9900   17.0750 O   0  0  0  0  0  0  0  0  0  0  0  0
   -6.4370    3.0000   16.4700 O   0  0  0  0  0  0  0  0  0  0  0  0
   -5.1180    1.1380   15.5800 N   0  5  0  0  0  0  0  0  0  0  0  0
   -1.3100   10.8130   14.0750 C   0  0  0  0  0  0  0  0  0  0  0  0
    3.7350   11.7340   12.3730 H   0  0  0  0  0  0  0  0  0  0  0  0
    1.5280   12.0080   13.4650 H   0  0  0  0  0  0  0  0  0  0  0  0
    5.2710   10.6240   11.0650 H   0  0  0  0  0  0  0  0  0  0  0  0
    4.5710    9.5750    9.7750 H   0  0  0  0  0  0  0  0  0  0  0  0
    5.2450    8.8320   11.2830 H   0  0  0  0  0  0  0  0  0  0  0  0
   -2.6100    8.1110   10.9670 H   0  0  0  0  0  0  0  0  0  0  0  0
   -5.9100    6.9860   13.8350 H   0  0  0  0  0  0  0  0  0  0  0  0
   -6.2340    5.3010   15.5890 H   0  0  0  0  0  0  0  0  0  0  0  0
   -3.3020    2.7500   13.6350 H   0  0  0  0  0  0  0  0  0  0  0  0
   -3.0190    4.4470   11.8850 H   0  0  0  0  0  0  0  0  0  0  0  0
    1.8320    6.7740   10.6330 H   0  0  0  0  0  0  0  0  0  0  0  0
    3.6040    7.0070   10.9480 H   0  0  0  0  0  0  0  0  0  0  0  0
    2.8340    7.7700    9.5010 H   0  0  0  0  0  0  0  0  0  0  0  0
   -4.2530    6.4650   10.6860 H   0  0  0  0  0  0  0  0  0  0  0  0
   -4.9700    7.7280   11.7830 H   0  0  0  0  0  0  0  0  0  0  0  0
   -4.1830    0.6780   15.8580 H   0  0  0  0  0  0  0  0  0  0  0  0
   -0.7080   11.1490   14.9580 H   0  0  0  0  0  0  0  0  0  0  0  0
   -1.5380   11.7300   13.4650 H   0  0  0  0  0  0  0  0  0  0  0  0
   -2.2770   10.3950   14.4380 H   0  0  0  0  0  0  0  0  0  0  0  0
  1  2  1  0  0  0  0
  2  3  2  0  0  0  0
  2 10  1  0  0  0  0
  3  4  1  0  0  0  0
  4  5  2  0  0  0  0
  5  6  1  0  0  0  0
  5  9  1  0  0  0  0
  6  7  2  0  0  0  0
  6 26  1  0  0  0  0
  7  8  1  0  0  0  0
  7 12  1  0  0  0  0
  8  9  1  0  0  0  0
  9 10  2  0  0  0  0
 10 11  1  0  0  0  0
 12 13  2  0  0  0  0
 12 14  1  0  0  0  0
 14 15  1  0  0  0  0
 15 16  1  0  0  0  0
 16 17  2  0  0  0  0
 16 21  1  0  0  0  0
 17 18  1  0  0  0  0
 18 19  2  0  0  0  0
 19 20  1  0  0  0  0
 19 22  1  0  0  0  0
 20 21  2  0  0  0  0
 22 23  2  0  0  0  0
 22 24  2  0  0  0  0
 22 25  1  0  0  0  0
 27  3  1  0  0  0  0
 28  4  1  0  0  0  0
 29  1  1  0  0  0  0
 30  1  1  0  0  0  0
 31  1  1  0  0  0  0
 32 14  1  0  0  0  0
 33 17  1  0  0  0  0
 34 18  1  0  0  0  0
 35 20  1  0  0  0  0
 36 21  1  0  0  0  0
 37 11  1  0  0  0  0
 38 11  1  0  0  0  0
 39 11  1  0  0  0  0
 40 15  1  0  0  0  0
 41 15  1  0  0  0  0
 42 25  1  0  0  0  0
 43 26  1  0  0  0  0
 44 26  1  0  0  0  0
 45 26  1  0  0  0  0
M  CHG  1  25  -1
M  END
>  <deltaG_kcalmol>
-8.8

>  <number_of_rotatable_bonds>
5

>  <charge>
-1

>  <lm5_entropy_jk>
40.81376020622596

$$$$
