4LB3
 OpenBabel11252210453D

 35 36  0  0  0  0  0  0  0  0999 V2000
   14.3040  -12.0120   19.3410 Cl  0  0  0  0  0  0  0  0  0  0  0  0
   17.8540   -6.1740   13.1890 C   0  0  0  0  0  0  0  0  0  0  0  0
   18.6000   -5.1440   12.5840 C   0  0  0  0  0  0  0  0  0  0  0  0
   16.5170   -6.3680   12.7840 C   0  0  0  0  0  0  0  0  0  0  0  0
   18.0400   -4.3370   11.5850 C   0  0  0  0  0  0  0  0  0  0  0  0
   15.9490   -5.5560   11.7850 C   0  0  0  0  0  0  0  0  0  0  0  0
   16.7130   -4.5430   11.1840 C   0  0  0  0  0  0  0  0  0  0  0  0
   18.5160   -7.0620   14.2490 C   0  0  0  0  0  0  0  0  0  0  0  0
   17.5740   -7.8610   15.0640 N   0  0  0  0  0  0  0  0  0  0  0  0
   17.5350   -9.2320   15.0940 C   0  0  0  0  0  0  0  0  0  0  0  0
   16.6860   -9.8600   16.1440 C   0  0  0  0  0  0  0  0  0  0  0  0
   16.3230   -9.1830   17.3210 C   0  0  0  0  0  0  0  0  0  0  0  0
   16.2780  -11.1920   15.9490 C   0  0  0  0  0  0  0  0  0  0  0  0
   15.5120   -9.8260   18.2610 C   0  0  0  0  0  0  0  0  0  0  0  0
   15.5140  -11.8370   16.9260 C   0  0  0  0  0  0  0  0  0  0  0  0
   15.1370  -11.1550   18.0780 C   0  0  0  0  0  0  0  0  0  0  0  0
   18.1530   -9.9180   14.3000 O   0  0  0  0  0  0  0  0  0  0  0  0
   16.8810   -7.9440   17.5880 O   0  0  0  0  0  0  0  0  0  0  0  0
   16.6110   -7.0570   18.7220 C   0  0  0  0  0  0  0  0  0  0  0  0
   15.5390   -6.0050   18.4870 C   0  0  0  0  0  0  0  0  0  0  0  0
   15.0330   -5.5260   19.4890 O   0  0  0  0  0  0  0  0  0  0  0  0
   15.1530   -5.7810   17.3560 O   0  5  0  0  0  0  0  0  0  0  0  0
   19.8710   -4.9200   12.9720 F   0  0  0  0  0  0  0  0  0  0  0  0
   15.8390   -3.2490    9.7330 I   0  0  0  0  0  0  0  0  0  0  0  0
   17.5070   -6.4810   18.9610 H   0  0  0  0  0  0  0  0  0  0  0  0
   15.9160   -7.1410   13.2540 H   0  0  0  0  0  0  0  0  0  0  0  0
   18.6250   -3.5270   11.1570 H   0  0  0  0  0  0  0  0  0  0  0  0
   14.9070   -5.6970   11.4980 H   0  0  0  0  0  0  0  0  0  0  0  0
   19.1170   -6.4270   14.9160 H   0  0  0  0  0  0  0  0  0  0  0  0
   17.0730   -7.4260   15.8360 H   0  0  0  0  0  0  0  0  0  0  0  0
   16.5690  -11.7350   15.0460 H   0  0  0  0  0  0  0  0  0  0  0  0
   15.2310   -9.3250   19.1730 H   0  0  0  0  0  0  0  0  0  0  0  0
   15.2250  -12.8790   16.7960 H   0  0  0  0  0  0  0  0  0  0  0  0
   16.3400   -7.5950   19.6290 H   0  0  0  0  0  0  0  0  0  0  0  0
   19.2280   -7.7460   13.7680 H   0  0  0  0  0  0  0  0  0  0  0  0
  1 16  1  0  0  0  0
  2  3  2  0  0  0  0
  2  4  1  0  0  0  0
  2  8  1  0  0  0  0
  3  5  1  0  0  0  0
  3 23  1  0  0  0  0
  4  6  2  0  0  0  0
  4 26  1  0  0  0  0
  5  7  2  0  0  0  0
  5 27  1  0  0  0  0
  6  7  1  0  0  0  0
  6 28  1  0  0  0  0
  7 24  1  0  0  0  0
  8  9  1  0  0  0  0
  8 29  1  0  0  0  0
  8 35  1  0  0  0  0
  9 10  1  0  0  0  0
  9 30  1  0  0  0  0
 10 11  1  0  0  0  0
 10 17  2  0  0  0  0
 11 12  2  0  0  0  0
 11 13  1  0  0  0  0
 12 14  1  0  0  0  0
 12 18  1  0  0  0  0
 13 15  2  0  0  0  0
 13 31  1  0  0  0  0
 14 16  2  0  0  0  0
 14 32  1  0  0  0  0
 15 16  1  0  0  0  0
 15 33  1  0  0  0  0
 18 19  1  0  0  0  0
 19 20  1  0  0  0  0
 19 25  1  0  0  0  0
 19 34  1  0  0  0  0
 20 21  2  0  0  0  0
 20 22  1  0  0  0  0
M  CHG  1  22  -1
M  END
>  <deltaG_kcalmol>
-10.73

>  <charge>
-1

>  <lm5_entropy_jk>
25.63780735381752

>  <number_of_rotatable_bonds>
7

$$$$
