4LB3
 OpenBabel11252210453D

 35 36  0  0  0  0  0  0  0  0999 V2000
   14.5490  -12.6460   19.4180 Cl  0  0  0  0  0  0  0  0  0  0  0  0
   17.5130   -6.2710   13.2800 C   0  0  0  0  0  0  0  0  0  0  0  0
   18.2650   -5.2080   12.7500 C   0  0  0  0  0  0  0  0  0  0  0  0
   16.2070   -6.4750   12.7970 C   0  0  0  0  0  0  0  0  0  0  0  0
   17.7660   -4.4060   11.7170 C   0  0  0  0  0  0  0  0  0  0  0  0
   15.6840   -5.6490   11.7800 C   0  0  0  0  0  0  0  0  0  0  0  0
   16.4700   -4.6230   11.2340 C   0  0  0  0  0  0  0  0  0  0  0  0
   18.1660   -7.1840   14.3250 C   0  0  0  0  0  0  0  0  0  0  0  0
   17.2460   -8.0820   15.0720 N   0  0  0  0  0  0  0  0  0  0  0  0
   17.3650   -9.4500   15.1110 C   0  0  0  0  0  0  0  0  0  0  0  0
   16.6090  -10.1970   16.1670 C   0  0  0  0  0  0  0  0  0  0  0  0
   15.8820   -9.5660   17.1900 C   0  0  0  0  0  0  0  0  0  0  0  0
   16.6790  -11.6070   16.1530 C   0  0  0  0  0  0  0  0  0  0  0  0
   15.2280  -10.3260   18.1590 C   0  0  0  0  0  0  0  0  0  0  0  0
   16.0350  -12.3550   17.1500 C   0  0  0  0  0  0  0  0  0  0  0  0
   15.3070  -11.7150   18.1500 C   0  0  0  0  0  0  0  0  0  0  0  0
   18.0870  -10.0480   14.3330 O   0  0  0  0  0  0  0  0  0  0  0  0
   15.7510   -8.1990   17.2370 O   0  0  0  0  0  0  0  0  0  0  0  0
   16.0620   -7.3850   18.4190 C   0  0  0  0  0  0  0  0  0  0  0  0
   15.3520   -6.0280   18.4290 C   0  0  0  0  0  0  0  0  0  0  0  0
   15.0160   -5.5890   19.5210 O   0  0  0  0  0  0  0  0  0  0  0  0
   14.9560   -5.5810   17.3730 O   0  5  0  0  0  0  0  0  0  0  0  0
   19.4960   -4.9640   13.2370 F   0  0  0  0  0  0  0  0  0  0  0  0
   15.6820   -3.3140    9.7450 I   0  0  0  0  0  0  0  0  0  0  0  0
   17.1310   -7.1660   18.4770 H   0  0  0  0  0  0  0  0  0  0  0  0
   15.5940   -7.2620   13.2220 H   0  0  0  0  0  0  0  0  0  0  0  0
   18.3640   -3.5830   11.3360 H   0  0  0  0  0  0  0  0  0  0  0  0
   14.6600   -5.7920   11.4340 H   0  0  0  0  0  0  0  0  0  0  0  0
   18.7090   -6.5530   15.0430 H   0  0  0  0  0  0  0  0  0  0  0  0
   16.6000   -7.6980   15.7590 H   0  0  0  0  0  0  0  0  0  0  0  0
   17.2440  -12.1290   15.3770 H   0  0  0  0  0  0  0  0  0  0  0  0
   14.6600   -9.8220   18.9250 H   0  0  0  0  0  0  0  0  0  0  0  0
   16.1040  -13.4420   17.1460 H   0  0  0  0  0  0  0  0  0  0  0  0
   15.7900   -7.8840   19.3490 H   0  0  0  0  0  0  0  0  0  0  0  0
   18.9350   -7.7910   13.8240 H   0  0  0  0  0  0  0  0  0  0  0  0
  1 16  1  0  0  0  0
  2  3  2  0  0  0  0
  2  4  1  0  0  0  0
  2  8  1  0  0  0  0
  3  5  1  0  0  0  0
  3 23  1  0  0  0  0
  4  6  2  0  0  0  0
  4 26  1  0  0  0  0
  5  7  2  0  0  0  0
  5 27  1  0  0  0  0
  6  7  1  0  0  0  0
  6 28  1  0  0  0  0
  7 24  1  0  0  0  0
  8  9  1  0  0  0  0
  8 29  1  0  0  0  0
  8 35  1  0  0  0  0
  9 10  1  0  0  0  0
  9 30  1  0  0  0  0
 10 11  1  0  0  0  0
 10 17  2  0  0  0  0
 11 12  2  0  0  0  0
 11 13  1  0  0  0  0
 12 14  1  0  0  0  0
 12 18  1  0  0  0  0
 13 15  2  0  0  0  0
 13 31  1  0  0  0  0
 14 16  2  0  0  0  0
 14 32  1  0  0  0  0
 15 16  1  0  0  0  0
 15 33  1  0  0  0  0
 18 19  1  0  0  0  0
 19 20  1  0  0  0  0
 19 25  1  0  0  0  0
 19 34  1  0  0  0  0
 20 21  2  0  0  0  0
 20 22  1  0  0  0  0
M  CHG  1  22  -1
M  END
>  <deltaG_kcalmol>
-10.73

>  <charge>
-1

>  <lm5_entropy_jk>
25.63780735381752

>  <number_of_rotatable_bonds>
7

$$$$
