3EL1
 OpenBabel11252210453D

103105  0  0  1  0  0  0  0  0999 V2000
    2.8330    1.3170   12.2700 C   0  0  1  0  0  0  0  0  0  0  0  0
    3.4460    2.0520   11.1110 N   0  0  0  0  0  0  0  0  0  0  0  0
    3.7440   -0.9700   12.4830 O   0  0  0  0  0  0  0  0  0  0  0  0
    4.4530   -2.7040   15.8240 N   0  0  0  0  0  0  0  0  0  0  0  0
    5.5850   -3.2510   16.4530 N   0  0  0  0  0  0  0  0  0  0  0  0
    4.7540    0.6920   13.6380 N   0  0  0  0  0  0  0  0  0  0  0  0
    7.1130   -5.8940   16.9500 N   0  0  0  0  0  0  0  0  0  0  0  0
    2.9370   -9.9830   16.8690 N   0  0  0  0  0  0  0  0  0  0  0  0
    3.9950    3.7280    9.7570 O   0  0  0  0  0  0  0  0  0  0  0  0
    6.6320   -7.7670   18.0460 O   0  0  0  0  0  0  0  0  0  0  0  0
    0.8090    0.0370   13.1110 C   0  0  0  0  0  0  0  0  0  0  0  0
    9.1560   -4.5660   16.1950 C   0  0  0  0  0  0  0  0  0  0  0  0
    7.6680   -4.5260   16.6560 C   0  0  1  0  0  0  0  0  0  0  0  0
    5.7770   -0.1390   14.3030 C   0  0  2  0  0  0  0  0  0  0  0  0
    5.4660   -0.3410   15.8180 C   0  0  2  0  0  0  0  0  0  0  0  0
    3.2880   -9.2610   15.7800 C   0  0  0  0  0  0  0  0  0  0  0  0
    0.4450    2.0760   11.8910 C   0  0  0  0  0  0  0  0  0  0  0  0
    3.2770   -7.7580   15.9120 C   0  0  0  0  0  0  0  0  0  0  0  0
    3.2830   -4.9190   16.1230 C   0  0  0  0  0  0  0  0  0  0  0  0
    7.4230    0.9290   12.6550 C   0  0  0  0  0  0  0  0  0  0  0  0
    6.6810   -3.7340   15.7640 C   0  0  0  0  0  0  0  0  0  0  0  0
    7.1120   -6.4960   18.1700 C   0  0  0  0  0  0  0  0  0  0  0  0
    3.4590    3.4040   10.9700 C   0  0  0  0  0  0  0  0  0  0  0  0
    4.2810   -1.2760   16.1120 C   0  0  0  0  0  0  0  0  0  0  0  0
    3.2290   -3.4110   16.2350 C   0  0  0  0  0  0  0  0  0  0  0  0
    7.1400    0.5640   14.1020 C   0  0  0  0  0  0  0  0  0  0  0  0
    1.3660    0.8800   11.9960 C   0  0  0  0  0  0  0  0  0  0  0  0
    3.7920    0.2140   12.7840 C   0  0  0  0  0  0  0  0  0  0  0  0
    3.0230   -6.9260   14.7930 C   0  0  0  0  0  0  0  0  0  0  0  0
    3.5160   -7.1160   17.1540 C   0  0  0  0  0  0  0  0  0  0  0  0
    3.0170   -5.5280   14.8970 C   0  0  0  0  0  0  0  0  0  0  0  0
    3.5280   -5.7120   17.2550 C   0  0  0  0  0  0  0  0  0  0  0  0
    3.6340   -9.9110   14.5690 C   0  0  0  0  0  0  0  0  0  0  0  0
    7.2810    2.2570   12.2260 C   0  0  0  0  0  0  0  0  0  0  0  0
    7.8080   -0.0580   11.7380 C   0  0  0  0  0  0  0  0  0  0  0  0
    2.8920  -11.3300   16.7990 C   0  0  0  0  0  0  0  0  0  0  0  0
    3.5990  -11.3100   14.4820 C   0  0  0  0  0  0  0  0  0  0  0  0
    7.5210    2.6010   10.8840 C   0  0  0  0  0  0  0  0  0  0  0  0
    8.0690    0.2810   10.3990 C   0  0  0  0  0  0  0  0  0  0  0  0
    3.2140  -12.0280   15.6240 C   0  0  0  0  0  0  0  0  0  0  0  0
    7.9200    1.6110    9.9710 C   0  0  0  0  0  0  0  0  0  0  0  0
   10.0480   -5.0720   17.3080 C   0  0  0  0  0  0  0  0  0  0  0  0
    9.3780   -5.4780   15.0170 C   0  0  0  0  0  0  0  0  0  0  0  0
    9.6780   -3.2020   15.8320 C   0  0  0  0  0  0  0  0  0  0  0  0
    5.0880    0.9190   16.3550 O   0  0  0  0  0  0  0  0  0  0  0  0
    1.2290    0.1220   10.7020 C   0  0  0  0  0  0  0  0  0  0  0  0
    6.8120   -3.5580   14.5600 O   0  0  0  0  0  0  0  0  0  0  0  0
    6.5040   -8.6200   19.2140 C   0  0  0  0  0  0  0  0  0  0  0  0
    7.4870   -5.9740   19.2060 O   0  0  0  0  0  0  0  0  0  0  0  0
    4.1120    5.1210    9.3550 C   0  0  0  0  0  0  0  0  0  0  0  0
    3.0460    4.1940   11.8010 O   0  0  0  0  0  0  0  0  0  0  0  0
    2.7740    2.0060   13.1140 H   0  0  0  0  0  0  0  0  0  0  0  0
    3.7480    1.5460   10.2820 H   0  0  0  0  0  0  0  0  0  0  0  0
    5.5650   -3.4010   17.4570 H   0  0  0  0  0  0  0  0  0  0  0  0
    4.7710    1.6950   13.7800 H   0  0  0  0  0  0  0  0  0  0  0  0
    6.8110   -6.5040   16.1950 H   0  0  0  0  0  0  0  0  0  0  0  0
   -0.2520   -0.1660   12.9580 H   0  0  0  0  0  0  0  0  0  0  0  0
    1.3190   -0.9310   13.1660 H   0  0  0  0  0  0  0  0  0  0  0  0
    0.9200    0.5370   14.0780 H   0  0  0  0  0  0  0  0  0  0  0  0
    7.6680   -3.9540   17.5850 H   0  0  0  0  0  0  0  0  0  0  0  0
    5.8080   -1.1430   13.8450 H   0  0  0  0  0  0  0  0  0  0  0  0
    6.3660   -0.7240   16.3280 H   0  0  0  0  0  0  0  0  0  0  0  0
   -0.5850    1.7670   11.6860 H   0  0  0  0  0  0  0  0  0  0  0  0
    0.4450    2.6640   12.8130 H   0  0  0  0  0  0  0  0  0  0  0  0
    0.7520    2.7370   11.0750 H   0  0  0  0  0  0  0  0  0  0  0  0
    4.0740   -1.1700   17.1800 H   0  0  0  0  0  0  0  0  0  0  0  0
    3.4090   -0.8870   15.5760 H   0  0  0  0  0  0  0  0  0  0  0  0
    2.3920   -3.0570   15.6260 H   0  0  0  0  0  0  0  0  0  0  0  0
    2.9840   -3.1610   17.2750 H   0  0  0  0  0  0  0  0  0  0  0  0
    7.9330   -0.0840   14.4890 H   0  0  0  0  0  0  0  0  0  0  0  0
    7.1920    1.4610   14.7310 H   0  0  0  0  0  0  0  0  0  0  0  0
    2.8310   -7.3660   13.8270 H   0  0  0  0  0  0  0  0  0  0  0  0
    3.7180   -7.7170   18.0390 H   0  0  0  0  0  0  0  0  0  0  0  0
    2.8090   -4.9100   14.0280 H   0  0  0  0  0  0  0  0  0  0  0  0
    3.7340   -5.2370   18.2120 H   0  0  0  0  0  0  0  0  0  0  0  0
    3.9330   -9.3310   13.7020 H   0  0  0  0  0  0  0  0  0  0  0  0
    6.9690    3.0220   12.9320 H   0  0  0  0  0  0  0  0  0  0  0  0
    7.9000   -1.0880   12.0690 H   0  0  0  0  0  0  0  0  0  0  0  0
    2.5920  -11.8650   17.7090 H   0  0  0  0  0  0  0  0  0  0  0  0
    3.8600  -11.8230   13.5540 H   0  0  0  0  0  0  0  0  0  0  0  0
    7.4000    3.6330   10.5540 H   0  0  0  0  0  0  0  0  0  0  0  0
    8.3780   -0.4850    9.6930 H   0  0  0  0  0  0  0  0  0  0  0  0
    3.1690  -13.1180   15.6040 H   0  0  0  0  0  0  0  0  0  0  0  0
    8.1050    1.8780    8.9310 H   0  0  0  0  0  0  0  0  0  0  0  0
   11.1010   -5.0770   17.0180 H   0  0  0  0  0  0  0  0  0  0  0  0
    9.9450   -4.4560   18.2060 H   0  0  0  0  0  0  0  0  0  0  0  0
    9.7860   -6.1000   17.5790 H   0  0  0  0  0  0  0  0  0  0  0  0
   10.4040   -5.4250   14.6410 H   0  0  0  0  0  0  0  0  0  0  0  0
    9.1590   -6.5190   15.2810 H   0  0  0  0  0  0  0  0  0  0  0  0
    8.6940   -5.1980   14.2140 H   0  0  0  0  0  0  0  0  0  0  0  0
   10.7520   -3.2180   15.6330 H   0  0  0  0  0  0  0  0  0  0  0  0
    9.1900   -2.8230   14.9290 H   0  0  0  0  0  0  0  0  0  0  0  0
    9.4970   -2.4830   16.6360 H   0  0  0  0  0  0  0  0  0  0  0  0
    5.2090    1.5270   15.5990 H   0  0  0  0  0  0  0  0  0  0  0  0
    1.3500    0.7890    9.8410 H   0  0  0  0  0  0  0  0  0  0  0  0
    2.0290   -0.6200   10.6370 H   0  0  0  0  0  0  0  0  0  0  0  0
    0.2640   -0.3830   10.6150 H   0  0  0  0  0  0  0  0  0  0  0  0
    6.0640   -9.5910   18.9490 H   0  0  0  0  0  0  0  0  0  0  0  0
    7.4820   -8.8020   19.6780 H   0  0  0  0  0  0  0  0  0  0  0  0
    5.8640   -8.1480   19.9730 H   0  0  0  0  0  0  0  0  0  0  0  0
    4.5970    5.2140    8.3720 H   0  0  0  0  0  0  0  0  0  0  0  0
    3.1240    5.5970    9.2900 H   0  0  0  0  0  0  0  0  0  0  0  0
    4.7040    5.6930   10.0830 H   0  0  0  0  0  0  0  0  0  0  0  0
  1 27  1  0  0  0  0
  1 28  1  0  0  0  0
  1 52  1  1  0  0  0
  1  2  1  0  0  0  0
  2 23  1  0  0  0  0
  2 53  1  0  0  0  0
  3 28  2  0  0  0  0
  4  5  1  0  0  0  0
  4 24  1  0  0  0  0
  4 25  1  0  0  0  0
  5 54  1  0  0  0  0
  5 21  1  0  0  0  0
  6 55  1  0  0  0  0
  6 14  1  0  0  0  0
  6 28  1  0  0  0  0
  7 56  1  0  0  0  0
  7 13  1  0  0  0  0
  7 22  1  0  0  0  0
  8 16  2  0  0  0  0
  8 36  1  0  0  0  0
  9 23  1  0  0  0  0
  9 50  1  0  0  0  0
 10 22  1  0  0  0  0
 10 48  1  0  0  0  0
 11 57  1  0  0  0  0
 11 58  1  0  0  0  0
 11 59  1  0  0  0  0
 11 27  1  0  0  0  0
 12 13  1  0  0  0  0
 12 42  1  0  0  0  0
 12 43  1  0  0  0  0
 12 44  1  0  0  0  0
 13 60  1  1  0  0  0
 13 21  1  0  0  0  0
 14 61  1  6  0  0  0
 14 15  1  0  0  0  0
 14 26  1  0  0  0  0
 15 62  1  1  0  0  0
 15 24  1  0  0  0  0
 15 45  1  0  0  0  0
 16 18  1  0  0  0  0
 16 33  1  0  0  0  0
 17 63  1  0  0  0  0
 17 64  1  0  0  0  0
 17 65  1  0  0  0  0
 17 27  1  0  0  0  0
 18 29  2  0  0  0  0
 18 30  1  0  0  0  0
 19 25  1  0  0  0  0
 19 31  2  0  0  0  0
 19 32  1  0  0  0  0
 20 26  1  0  0  0  0
 20 34  2  0  0  0  0
 20 35  1  0  0  0  0
 21 47  2  0  0  0  0
 22 49  2  0  0  0  0
 23 51  2  0  0  0  0
 24 66  1  0  0  0  0
 24 67  1  0  0  0  0
 25 68  1  0  0  0  0
 25 69  1  0  0  0  0
 26 70  1  0  0  0  0
 26 71  1  0  0  0  0
 27 46  1  0  0  0  0
 29 72  1  0  0  0  0
 29 31  1  0  0  0  0
 30 73  1  0  0  0  0
 30 32  2  0  0  0  0
 31 74  1  0  0  0  0
 32 75  1  0  0  0  0
 33 76  1  0  0  0  0
 33 37  2  0  0  0  0
 34 77  1  0  0  0  0
 34 38  1  0  0  0  0
 35 78  1  0  0  0  0
 35 39  2  0  0  0  0
 36 79  1  0  0  0  0
 36 40  2  0  0  0  0
 37 80  1  0  0  0  0
 37 40  1  0  0  0  0
 38 81  1  0  0  0  0
 38 41  2  0  0  0  0
 39 82  1  0  0  0  0
 39 41  1  0  0  0  0
 40 83  1  0  0  0  0
 41 84  1  0  0  0  0
 42 85  1  0  0  0  0
 42 86  1  0  0  0  0
 42 87  1  0  0  0  0
 43 88  1  0  0  0  0
 43 89  1  0  0  0  0
 43 90  1  0  0  0  0
 44 91  1  0  0  0  0
 44 92  1  0  0  0  0
 44 93  1  0  0  0  0
 45 94  1  0  0  0  0
 46 95  1  0  0  0  0
 46 96  1  0  0  0  0
 46 97  1  0  0  0  0
 48 98  1  0  0  0  0
 48 99  1  0  0  0  0
 48100  1  0  0  0  0
 50101  1  0  0  0  0
 50102  1  0  0  0  0
 50103  1  0  0  0  0
M  END
>  <charge>
0

>  <KI_NM>
0.024

>  <number_of_rotatable_bonds>
22

>  <lm5_entropy_jk>
56.95019395789525

>  <ligand_crystal_conformation>
B

$$$$
