4guy.pdb
 OpenBabel11252210453D

 35 35  0  0  0  0  0  0  0  0999 V2000
    6.3610   24.6310    4.5990 C   0  0  0  0  0  0  0  0  0  0  0  0
    7.7290   26.1320    2.2390 N   0  0  0  0  0  0  0  0  0  0  0  0
    1.4510   22.7980    6.7770 O   0  0  0  0  0  0  0  0  0  0  0  0
    7.8960   26.7870    3.8430 S   0  0  0  0  0  0  0  0  0  0  0  0
    5.0330   24.1410    5.1230 C   0  0  0  0  0  0  0  0  0  0  0  0
    9.0270   23.1590    0.3990 N   0  0  0  0  0  0  0  0  0  0  0  0
    7.0080   24.2620    0.1770 O   0  0  0  0  0  0  0  0  0  0  0  0
    4.9820   23.0900    6.0600 C   0  0  0  0  0  0  0  0  0  0  0  0
    9.1500   26.3050    4.4160 O   0  0  0  0  0  0  0  0  0  0  0  0
    3.7690   22.6300    6.5600 C   0  0  0  0  0  0  0  0  0  0  0  0
    8.5010   22.2400   -0.5410 O   0  0  0  0  0  0  0  0  0  0  0  0
    2.5780   23.2520    6.1280 C   0  0  0  0  0  0  0  0  0  0  0  0
    7.7900   28.2380    3.6730 O   0  0  0  0  0  0  0  0  0  0  0  0
    3.8300   24.6810    4.6510 C   0  0  0  0  0  0  0  0  0  0  0  0
    2.5990   24.2540    5.1540 C   0  0  0  0  0  0  0  0  0  0  0  0
    6.5230   26.1570    4.7170 C   0  0  0  0  0  0  0  0  0  0  0  0
    0.1860   23.4170    6.4190 C   0  0  0  0  0  0  0  0  0  0  0  0
    8.0620   24.1630    0.7760 C   0  0  0  0  0  0  0  0  0  0  0  0
    8.6710   25.0640    1.8550 C   0  0  0  0  0  0  0  0  0  0  0  0
    7.1980   24.1260    5.1470 H   0  0  0  0  0  0  0  0  0  0  0  0
    6.4150   24.3210    3.5230 H   0  0  0  0  0  0  0  0  0  0  0  0
    7.6340   26.8440    1.4900 H   0  0  0  0  0  0  0  0  0  0  0  0
    9.4230   22.6030    1.2190 H   0  0  0  0  0  0  0  0  0  0  0  0
    5.9110   22.6370    6.4100 H   0  0  0  0  0  0  0  0  0  0  0  0
    3.7350   21.8140    7.2820 H   0  0  0  0  0  0  0  0  0  0  0  0
    8.8830   21.2960   -0.1790 H   0  0  0  0  0  0  0  0  0  0  0  0
    3.8320   25.4480    3.8750 H   0  0  0  0  0  0  0  0  0  0  0  0
    1.6880   24.7200    4.7800 H   0  0  0  0  0  0  0  0  0  0  0  0
    5.5820   26.6420    4.3290 H   0  0  0  0  0  0  0  0  0  0  0  0
    6.6080   26.4230    5.8050 H   0  0  0  0  0  0  0  0  0  0  0  0
   -0.5200   22.9020    7.1100 H   0  0  0  0  0  0  0  0  0  0  0  0
   -0.0460   23.1990    5.3550 H   0  0  0  0  0  0  0  0  0  0  0  0
    0.2270   24.5100    6.6150 H   0  0  0  0  0  0  0  0  0  0  0  0
    9.6550   25.4660    1.4600 H   0  0  0  0  0  0  0  0  0  0  0  0
    8.9210   24.4190    2.7530 H   0  0  0  0  0  0  0  0  0  0  0  0
  1 16  1  0  0  0  0
  1  5  1  0  0  0  0
  1 20  1  0  0  0  0
  1 21  1  0  0  0  0
  2 19  1  0  0  0  0
  2  4  1  0  0  0  0
  2 22  1  0  0  0  0
  3 12  1  0  0  0  0
  3 17  1  0  0  0  0
  4  9  2  0  0  0  0
  4 16  1  0  0  0  0
  4 13  2  0  0  0  0
  5 14  2  0  0  0  0
  5  8  1  0  0  0  0
  6 11  1  0  0  0  0
  6 18  1  0  0  0  0
  6 23  1  0  0  0  0
  7 18  2  0  0  0  0
  8 10  2  0  0  0  0
  8 24  1  0  0  0  0
 10 12  1  0  0  0  0
 10 25  1  0  0  0  0
 11 26  1  0  0  0  0
 12 15  2  0  0  0  0
 14 15  1  0  0  0  0
 14 27  1  0  0  0  0
 15 28  1  0  0  0  0
 16 29  1  0  0  0  0
 16 30  1  0  0  0  0
 17 31  1  0  0  0  0
 17 32  1  0  0  0  0
 17 33  1  0  0  0  0
 18 19  1  0  0  0  0
 19 34  1  0  0  0  0
 19 35  1  0  0  0  0
M  END
>  <COMPND>
4guy.pdb

>  <AUTHOR>
GENERATED BY OPEN BABEL 2.3.1

>  <MASTER>
0    0    0    0    0    0    0    0   35    0   35    0

>  <lm5_entropy_jk>
33.27680186251505

>  <number_of_rotatable_bonds>
8

>  <deltaG_kcalmol>
-10.92

>  <charge>
0

$$$$
