4EHZ
 OpenBabel11252210453D

 37 40  0  0  0  0  0  0  0  0999 V2000
  -11.4350   29.4820    0.8300 C   0  0  0  0  0  0  0  0  0  0  0  0
  -12.4830   28.4550    0.6880 C   0  0  0  0  0  0  0  0  0  0  0  0
  -12.4280   27.2000    1.1440 N   0  0  0  0  0  0  0  0  0  0  0  0
  -13.6270   26.5750    0.7670 C   0  0  0  0  0  0  0  0  0  0  0  0
  -14.0030   25.2090    0.9640 C   0  0  0  0  0  0  0  0  0  0  0  0
  -15.1580   24.7310    0.5070 N   0  0  0  0  0  0  0  0  0  0  0  0
  -15.9850   25.6320   -0.1460 C   0  0  0  0  0  0  0  0  0  0  0  0
  -15.7260   27.0340   -0.3930 C   0  0  0  0  0  0  0  0  0  0  0  0
  -14.4770   27.5000    0.0710 C   0  0  0  0  0  0  0  0  0  0  0  0
  -13.7390   28.7020    0.0010 N   0  0  0  0  0  0  0  0  0  0  0  0
  -14.0720   29.9610   -0.6870 C   0  0  0  0  0  0  0  0  0  0  0  0
  -14.3260   29.7460   -2.2000 C   0  0  0  0  0  0  0  0  0  0  0  0
  -14.7450   31.0480   -2.8870 C   0  0  0  0  0  0  0  0  0  0  0  0
  -15.9870   31.6160   -2.1870 N   0  3  0  0  0  0  0  0  0  0  0  0
  -15.6490   31.9470   -0.7260 C   0  0  0  0  0  0  0  0  0  0  0  0
  -15.2690   30.6590    0.0070 C   0  0  0  0  0  0  0  0  0  0  0  0
  -16.8660   27.5340   -1.0960 C   0  0  0  0  0  0  0  0  0  0  0  0
  -17.7570   26.4810   -1.2740 C   0  0  0  0  0  0  0  0  0  0  0  0
  -17.2250   25.3130   -0.7100 N   0  0  0  0  0  0  0  0  0  0  0  0
  -13.3250   24.5240    1.5020 H   0  0  0  0  0  0  0  0  0  0  0  0
  -13.1880   30.6590   -0.6030 H   0  0  0  0  0  0  0  0  0  0  0  0
  -13.3810   29.3920   -2.6910 H   0  0  0  0  0  0  0  0  0  0  0  0
  -15.1120   28.9610   -2.3580 H   0  0  0  0  0  0  0  0  0  0  0  0
  -13.9310   31.8270   -2.8330 H   0  0  0  0  0  0  0  0  0  0  0  0
  -15.0040   30.8610   -3.9650 H   0  0  0  0  0  0  0  0  0  0  0  0
  -16.3360   32.4990   -2.7010 H   0  0  0  0  0  0  0  0  0  0  0  0
  -16.7630   30.8990   -2.2210 H   0  0  0  0  0  0  0  0  0  0  0  0
  -16.5430   32.4530   -0.2620 H   0  0  0  0  0  0  0  0  0  0  0  0
  -14.7950   32.6860   -0.7320 H   0  0  0  0  0  0  0  0  0  0  0  0
  -16.1340   29.9510    0.0580 H   0  0  0  0  0  0  0  0  0  0  0  0
  -14.9730   30.9210    1.0600 H   0  0  0  0  0  0  0  0  0  0  0  0
  -17.0320   28.5280   -1.4520 H   0  0  0  0  0  0  0  0  0  0  0  0
  -18.7100   26.4980   -1.7830 H   0  0  0  0  0  0  0  0  0  0  0  0
  -17.7160   24.4130   -0.6430 H   0  0  0  0  0  0  0  0  0  0  0  0
  -10.6820   29.1720    1.6090 H   0  0  0  0  0  0  0  0  0  0  0  0
  -11.8590   30.4640    1.1570 H   0  0  0  0  0  0  0  0  0  0  0  0
  -10.8900   29.6280   -0.1340 H   0  0  0  0  0  0  0  0  0  0  0  0
  1  2  1  0  0  0  0
  2 10  1  0  0  0  0
  2  3  2  0  0  0  0
  4  5  2  0  0  0  0
  4  9  1  0  0  0  0
  4  3  1  0  0  0  0
  5  6  1  0  0  0  0
  7  8  1  0  0  0  0
  7 19  1  0  0  0  0
  7  6  2  0  0  0  0
  8  9  2  0  0  0  0
  9 10  1  0  0  0  0
 11 12  1  0  0  0  0
 11 16  1  0  0  0  0
 11 10  1  0  0  0  0
 12 13  1  0  0  0  0
 13 14  1  0  0  0  0
 15 16  1  0  0  0  0
 15 14  1  0  0  0  0
 17 18  2  0  0  0  0
 17  8  1  0  0  0  0
 18 19  1  0  0  0  0
 20  5  1  0  0  0  0
 21 11  1  0  0  0  0
 22 12  1  0  0  0  0
 23 12  1  0  0  0  0
 24 13  1  0  0  0  0
 25 13  1  0  0  0  0
 26 14  1  0  0  0  0
 27 14  1  0  0  0  0
 28 15  1  0  0  0  0
 29 15  1  0  0  0  0
 30 16  1  0  0  0  0
 31 16  1  0  0  0  0
 32 17  1  0  0  0  0
 33 18  1  0  0  0  0
 34 19  1  0  0  0  0
 35  1  1  0  0  0  0
 36  1  1  0  0  0  0
 37  1  1  0  0  0  0
M  CHG  1  14   1
M  END
>  <charge>
1

>  <pKi>
8

>  <number_of_rotatable_bonds>
1

>  <lm5_entropy_jk>
22.786904138289753

$$$$
