3qu0.pdb
 OpenBabel11252210453D

 38 40  0  0  0  0  0  0  0  0999 V2000
   65.9280  154.3890  -50.5130 N   0  0  0  0  0  0  0  0  0  0  0  0
   64.6560  154.8770  -48.5770 N   0  0  0  0  0  0  0  0  0  0  0  0
   70.9430  150.0260  -47.7110 N   0  0  0  0  0  0  0  0  0  0  0  0
   67.4210  153.5240  -52.1910 N   0  0  0  0  0  0  0  0  0  0  0  0
   62.1830  152.7370  -42.6730 N   0  0  0  0  0  0  0  0  0  0  0  0
   67.6180  152.7810  -49.8810 C   0  0  0  0  0  0  0  0  0  0  0  0
   67.0250  153.5650  -50.8990 C   0  0  0  0  0  0  0  0  0  0  0  0
   65.6730  154.1810  -49.2020 C   0  0  0  0  0  0  0  0  0  0  0  0
   63.9800  154.5470  -47.3650 C   0  0  0  0  0  0  0  0  0  0  0  0
   68.6480  151.8150  -50.0880 C   0  0  0  0  0  0  0  0  0  0  0  0
   69.0730  150.9530  -48.9440 C   0  0  0  0  0  0  0  0  0  0  0  0
   68.1760  150.1580  -48.2250 C   0  0  0  0  0  0  0  0  0  0  0  0
   68.6790  149.2890  -47.2520 C   0  0  0  0  0  0  0  0  0  0  0  0
   70.0630  149.2350  -47.0330 C   0  0  0  0  0  0  0  0  0  0  0  0
   70.4500  150.8760  -48.6430 C   0  0  0  0  0  0  0  0  0  0  0  0
   64.1450  153.3520  -46.6490 C   0  0  0  0  0  0  0  0  0  0  0  0
   63.3900  153.1390  -45.4920 C   0  0  0  0  0  0  0  0  0  0  0  0
   62.4550  154.0820  -45.0560 C   0  0  0  0  0  0  0  0  0  0  0  0
   62.3050  155.2830  -45.7670 C   0  0  0  0  0  0  0  0  0  0  0  0
   63.0590  155.5200  -46.9080 C   0  0  0  0  0  0  0  0  0  0  0  0
   69.2000  151.6680  -51.1770 O   0  0  0  0  0  0  0  0  0  0  0  0
   60.2190  153.0540  -44.3770 O   0  0  0  0  0  0  0  0  0  0  0  0
   61.0280  154.9510  -42.9950 O   0  0  0  0  0  0  0  0  0  0  0  0
   66.8350  153.0390  -48.3670 S   0  0  0  0  0  0  0  0  0  0  0  0
   61.3600  153.7430  -43.7690 S   0  0  0  0  0  0  0  0  0  0  0  0
   64.0770  155.5030  -49.2010 H   0  0  0  0  0  0  0  0  0  0  0  0
   67.0060  154.1530  -52.9010 H   0  0  0  0  0  0  0  0  0  0  0  0
   68.2330  152.9450  -52.4580 H   0  0  0  0  0  0  0  0  0  0  0  0
   62.2700  151.7210  -42.9600 H   0  0  0  0  0  0  0  0  0  0  0  0
   62.0090  152.8230  -41.6630 H   0  0  0  0  0  0  0  0  0  0  0  0
   67.0970  150.1930  -48.4050 H   0  0  0  0  0  0  0  0  0  0  0  0
   68.0030  148.6540  -46.6710 H   0  0  0  0  0  0  0  0  0  0  0  0
   70.4770  148.5360  -46.2900 H   0  0  0  0  0  0  0  0  0  0  0  0
   71.1700  151.5190  -49.1720 H   0  0  0  0  0  0  0  0  0  0  0  0
   64.8230  152.5600  -46.9730 H   0  0  0  0  0  0  0  0  0  0  0  0
   63.5570  152.2050  -44.9430 H   0  0  0  0  0  0  0  0  0  0  0  0
   61.5900  156.0540  -45.4490 H   0  0  0  0  0  0  0  0  0  0  0  0
   62.9180  156.4480  -47.4650 H   0  0  0  0  0  0  0  0  0  0  0  0
  1  8  2  0  0  0  0
  2  9  1  0  0  0  0
  2 26  1  0  0  0  0
  3 14  2  0  0  0  0
  4  7  1  0  0  0  0
  4 27  1  0  0  0  0
  4 28  1  0  0  0  0
  5 29  1  0  0  0  0
  5 30  1  0  0  0  0
  6 24  1  0  0  0  0
  7  1  1  0  0  0  0
  7  6  2  0  0  0  0
  8  2  1  0  0  0  0
  8 24  1  0  0  0  0
  9 20  2  0  0  0  0
  9 16  1  0  0  0  0
 10  6  1  0  0  0  0
 10 11  1  0  0  0  0
 11 15  2  0  0  0  0
 11 12  1  0  0  0  0
 12 13  2  0  0  0  0
 12 31  1  0  0  0  0
 13 14  1  0  0  0  0
 13 32  1  0  0  0  0
 14 33  1  0  0  0  0
 15  3  1  0  0  0  0
 15 34  1  0  0  0  0
 16 17  2  0  0  0  0
 16 35  1  0  0  0  0
 17 18  1  0  0  0  0
 17 36  1  0  0  0  0
 18 25  1  0  0  0  0
 19 18  2  0  0  0  0
 19 37  1  0  0  0  0
 20 19  1  0  0  0  0
 20 38  1  0  0  0  0
 21 10  2  0  0  0  0
 22 25  2  0  0  0  0
 25 23  2  0  0  0  0
 25  5  1  0  0  0  0
M  END
>  <lm5_entropy_jk>
22.397995528352578

>  <number_of_rotatable_bonds>
5

>  <IC50_NM>
20

>  <charge>
0

$$$$
