3EL1
 OpenBabel11252210453D

103105  0  0  1  0  0  0  0  0999 V2000
    2.8470    1.1290   12.3170 C   0  0  1  0  0  0  0  0  0  0  0  0
    3.6050    1.8890   11.2600 N   0  0  0  0  0  0  0  0  0  0  0  0
    3.4870   -1.2000   12.8460 O   0  0  0  0  0  0  0  0  0  0  0  0
    4.3390   -2.9170   15.9720 N   0  0  0  0  0  0  0  0  0  0  0  0
    5.5090   -3.4140   16.5740 N   0  0  0  0  0  0  0  0  0  0  0  0
    4.7980    0.4590   13.6300 N   0  0  0  0  0  0  0  0  0  0  0  0
    7.1580   -6.0590   17.0790 N   0  0  0  0  0  0  0  0  0  0  0  0
    2.9950  -10.1980   17.2190 N   0  0  0  0  0  0  0  0  0  0  0  0
    4.2830    3.5970   10.0030 O   0  0  0  0  0  0  0  0  0  0  0  0
    6.9260   -7.9490   18.2240 O   0  0  0  0  0  0  0  0  0  0  0  0
    0.6120    0.1710   13.0230 C   0  0  0  0  0  0  0  0  0  0  0  0
    9.0920   -4.6190   16.2650 C   0  0  0  0  0  0  0  0  0  0  0  0
    7.6120   -4.6650   16.7480 C   0  0  1  0  0  0  0  0  0  0  0  0
    5.7400   -0.3930   14.3890 C   0  0  2  0  0  0  0  0  0  0  0  0
    5.3290   -0.5270   15.8900 C   0  0  2  0  0  0  0  0  0  0  0  0
    3.1480   -9.4850   16.0820 C   0  0  0  0  0  0  0  0  0  0  0  0
    0.6170    1.9790   11.4590 C   0  0  0  0  0  0  0  0  0  0  0  0
    3.1240   -7.9860   16.2000 C   0  0  0  0  0  0  0  0  0  0  0  0
    3.1740   -5.1430   16.3640 C   0  0  0  0  0  0  0  0  0  0  0  0
    7.4920    0.6010   12.8220 C   0  0  0  0  0  0  0  0  0  0  0  0
    6.5710   -3.9430   15.8620 C   0  0  0  0  0  0  0  0  0  0  0  0
    7.2260   -6.6220   18.3150 C   0  0  0  0  0  0  0  0  0  0  0  0
    3.6270    3.2480   11.1470 C   0  0  0  0  0  0  0  0  0  0  0  0
    4.1500   -1.4740   16.1900 C   0  0  0  0  0  0  0  0  0  0  0  0
    3.1470   -3.6270   16.4820 C   0  0  0  0  0  0  0  0  0  0  0  0
    7.1400    0.2590   14.2570 C   0  0  0  0  0  0  0  0  0  0  0  0
    1.3980    0.7540   11.8820 C   0  0  0  0  0  0  0  0  0  0  0  0
    3.7100   -0.0030   12.9360 C   0  0  0  0  0  0  0  0  0  0  0  0
    2.5350   -7.1800   15.1940 C   0  0  0  0  0  0  0  0  0  0  0  0
    3.7010   -7.3260   17.3130 C   0  0  0  0  0  0  0  0  0  0  0  0
    2.5620   -5.7760   15.2760 C   0  0  0  0  0  0  0  0  0  0  0  0
    3.7250   -5.9220   17.3930 C   0  0  0  0  0  0  0  0  0  0  0  0
    3.3470  -10.1340   14.8410 C   0  0  0  0  0  0  0  0  0  0  0  0
    7.3370    1.9180   12.3630 C   0  0  0  0  0  0  0  0  0  0  0  0
    7.9120   -0.4000   11.9360 C   0  0  0  0  0  0  0  0  0  0  0  0
    2.9930  -11.5460   17.1680 C   0  0  0  0  0  0  0  0  0  0  0  0
    3.3550  -11.5350   14.7720 C   0  0  0  0  0  0  0  0  0  0  0  0
    7.5820    2.2350   11.0180 C   0  0  0  0  0  0  0  0  0  0  0  0
    8.1690   -0.0870   10.5900 C   0  0  0  0  0  0  0  0  0  0  0  0
    3.1660  -12.2490   15.9640 C   0  0  0  0  0  0  0  0  0  0  0  0
    7.9920    1.2280   10.1300 C   0  0  0  0  0  0  0  0  0  0  0  0
   10.0230   -5.0390   17.3810 C   0  0  0  0  0  0  0  0  0  0  0  0
    9.3620   -5.5530   15.1180 C   0  0  0  0  0  0  0  0  0  0  0  0
    9.5120   -3.2370   15.8430 C   0  0  0  0  0  0  0  0  0  0  0  0
    4.8880    0.7530   16.3200 O   0  0  0  0  0  0  0  0  0  0  0  0
    1.3530   -0.1970   10.7130 C   0  0  0  0  0  0  0  0  0  0  0  0
    6.6460   -3.8390   14.6470 O   0  0  0  0  0  0  0  0  0  0  0  0
    6.9220   -8.7850   19.4110 C   0  0  0  0  0  0  0  0  0  0  0  0
    7.5180   -6.0260   19.3390 O   0  0  0  0  0  0  0  0  0  0  0  0
    4.4180    5.0000    9.6400 C   0  0  0  0  0  0  0  0  0  0  0  0
    3.1270    4.0270   11.9430 O   0  0  0  0  0  0  0  0  0  0  0  0
    2.7140    1.8000   13.1660 H   0  0  0  0  0  0  0  0  0  0  0  0
    3.9900    1.4080   10.4520 H   0  0  0  0  0  0  0  0  0  0  0  0
    5.5390   -3.4990   17.5860 H   0  0  0  0  0  0  0  0  0  0  0  0
    4.9640    1.4570   13.5830 H   0  0  0  0  0  0  0  0  0  0  0  0
    6.9540   -6.7250   16.3370 H   0  0  0  0  0  0  0  0  0  0  0  0
   -0.3570   -0.1890   12.6790 H   0  0  0  0  0  0  0  0  0  0  0  0
    1.1350   -0.6710   13.4840 H   0  0  0  0  0  0  0  0  0  0  0  0
    0.4260    0.9200   13.7940 H   0  0  0  0  0  0  0  0  0  0  0  0
    7.5890   -4.0770   17.6630 H   0  0  0  0  0  0  0  0  0  0  0  0
    5.7610   -1.4090   13.9570 H   0  0  0  0  0  0  0  0  0  0  0  0
    6.2060   -0.8510   16.4760 H   0  0  0  0  0  0  0  0  0  0  0  0
   -0.4420    1.7540   11.2900 H   0  0  0  0  0  0  0  0  0  0  0  0
    0.6700    2.7620   12.2220 H   0  0  0  0  0  0  0  0  0  0  0  0
    1.0160    2.3990   10.5290 H   0  0  0  0  0  0  0  0  0  0  0  0
    3.9240   -1.3230   17.2490 H   0  0  0  0  0  0  0  0  0  0  0  0
    3.2810   -1.1210   15.6220 H   0  0  0  0  0  0  0  0  0  0  0  0
    2.2560   -3.2590   15.9610 H   0  0  0  0  0  0  0  0  0  0  0  0
    2.9980   -3.3840   17.5420 H   0  0  0  0  0  0  0  0  0  0  0  0
    7.9020   -0.4020   14.6900 H   0  0  0  0  0  0  0  0  0  0  0  0
    7.1850    1.1630   14.8770 H   0  0  0  0  0  0  0  0  0  0  0  0
    2.0650   -7.6540   14.3410 H   0  0  0  0  0  0  0  0  0  0  0  0
    4.1560   -7.9170   18.1070 H   0  0  0  0  0  0  0  0  0  0  0  0
    2.1060   -5.1710   14.4990 H   0  0  0  0  0  0  0  0  0  0  0  0
    4.1830   -5.4340   18.2510 H   0  0  0  0  0  0  0  0  0  0  0  0
    3.5070   -9.5490   13.9410 H   0  0  0  0  0  0  0  0  0  0  0  0
    6.9990    2.6930   13.0480 H   0  0  0  0  0  0  0  0  0  0  0  0
    8.0240   -1.4210   12.2900 H   0  0  0  0  0  0  0  0  0  0  0  0
    2.8500  -12.0780   18.1160 H   0  0  0  0  0  0  0  0  0  0  0  0
    3.5050  -12.0530   13.8220 H   0  0  0  0  0  0  0  0  0  0  0  0
    7.4400    3.2550   10.6610 H   0  0  0  0  0  0  0  0  0  0  0  0
    8.4870   -0.8640    9.9000 H   0  0  0  0  0  0  0  0  0  0  0  0
    3.1600  -13.3400   15.9620 H   0  0  0  0  0  0  0  0  0  0  0  0
    8.1610    1.4700    9.0830 H   0  0  0  0  0  0  0  0  0  0  0  0
   11.0740   -4.9440   17.0990 H   0  0  0  0  0  0  0  0  0  0  0  0
    9.8590   -4.4390   18.2780 H   0  0  0  0  0  0  0  0  0  0  0  0
    9.8580   -6.0870   17.6530 H   0  0  0  0  0  0  0  0  0  0  0  0
   10.3800   -5.4430   14.7350 H   0  0  0  0  0  0  0  0  0  0  0  0
    9.2150   -6.5970   15.4140 H   0  0  0  0  0  0  0  0  0  0  0  0
    8.6570   -5.3460   14.3120 H   0  0  0  0  0  0  0  0  0  0  0  0
   10.5910   -3.1710   15.6820 H   0  0  0  0  0  0  0  0  0  0  0  0
    9.0240   -2.9480   14.9080 H   0  0  0  0  0  0  0  0  0  0  0  0
    9.2360   -2.4970   16.5970 H   0  0  0  0  0  0  0  0  0  0  0  0
    5.0690    1.3080   15.5350 H   0  0  0  0  0  0  0  0  0  0  0  0
    1.8010    0.2700    9.8310 H   0  0  0  0  0  0  0  0  0  0  0  0
    1.9230   -1.1050   10.9290 H   0  0  0  0  0  0  0  0  0  0  0  0
    0.3290   -0.4840   10.4590 H   0  0  0  0  0  0  0  0  0  0  0  0
    6.6610   -9.8240   19.1640 H   0  0  0  0  0  0  0  0  0  0  0  0
    7.9080   -8.7890   19.8950 H   0  0  0  0  0  0  0  0  0  0  0  0
    6.1930   -8.4140   20.1440 H   0  0  0  0  0  0  0  0  0  0  0  0
    4.9790    5.1180    8.7020 H   0  0  0  0  0  0  0  0  0  0  0  0
    3.4330    5.4690    9.5080 H   0  0  0  0  0  0  0  0  0  0  0  0
    4.9450    5.5590   10.4260 H   0  0  0  0  0  0  0  0  0  0  0  0
  1 27  1  0  0  0  0
  1 28  1  0  0  0  0
  1 52  1  1  0  0  0
  1  2  1  0  0  0  0
  2 23  1  0  0  0  0
  2 53  1  0  0  0  0
  3 28  2  0  0  0  0
  4  5  1  0  0  0  0
  4 24  1  0  0  0  0
  4 25  1  0  0  0  0
  5 54  1  0  0  0  0
  5 21  1  0  0  0  0
  6 55  1  0  0  0  0
  6 14  1  0  0  0  0
  6 28  1  0  0  0  0
  7 56  1  0  0  0  0
  7 13  1  0  0  0  0
  7 22  1  0  0  0  0
  8 16  2  0  0  0  0
  8 36  1  0  0  0  0
  9 23  1  0  0  0  0
  9 50  1  0  0  0  0
 10 22  1  0  0  0  0
 10 48  1  0  0  0  0
 11 57  1  0  0  0  0
 11 58  1  0  0  0  0
 11 59  1  0  0  0  0
 11 27  1  0  0  0  0
 12 13  1  0  0  0  0
 12 42  1  0  0  0  0
 12 43  1  0  0  0  0
 12 44  1  0  0  0  0
 13 60  1  1  0  0  0
 13 21  1  0  0  0  0
 14 61  1  6  0  0  0
 14 15  1  0  0  0  0
 14 26  1  0  0  0  0
 15 62  1  1  0  0  0
 15 24  1  0  0  0  0
 15 45  1  0  0  0  0
 16 18  1  0  0  0  0
 16 33  1  0  0  0  0
 17 63  1  0  0  0  0
 17 64  1  0  0  0  0
 17 65  1  0  0  0  0
 17 27  1  0  0  0  0
 18 29  2  0  0  0  0
 18 30  1  0  0  0  0
 19 25  1  0  0  0  0
 19 31  2  0  0  0  0
 19 32  1  0  0  0  0
 20 26  1  0  0  0  0
 20 34  2  0  0  0  0
 20 35  1  0  0  0  0
 21 47  2  0  0  0  0
 22 49  2  0  0  0  0
 23 51  2  0  0  0  0
 24 66  1  0  0  0  0
 24 67  1  0  0  0  0
 25 68  1  0  0  0  0
 25 69  1  0  0  0  0
 26 70  1  0  0  0  0
 26 71  1  0  0  0  0
 27 46  1  0  0  0  0
 29 72  1  0  0  0  0
 29 31  1  0  0  0  0
 30 73  1  0  0  0  0
 30 32  2  0  0  0  0
 31 74  1  0  0  0  0
 32 75  1  0  0  0  0
 33 76  1  0  0  0  0
 33 37  2  0  0  0  0
 34 77  1  0  0  0  0
 34 38  1  0  0  0  0
 35 78  1  0  0  0  0
 35 39  2  0  0  0  0
 36 79  1  0  0  0  0
 36 40  2  0  0  0  0
 37 80  1  0  0  0  0
 37 40  1  0  0  0  0
 38 81  1  0  0  0  0
 38 41  2  0  0  0  0
 39 82  1  0  0  0  0
 39 41  1  0  0  0  0
 40 83  1  0  0  0  0
 41 84  1  0  0  0  0
 42 85  1  0  0  0  0
 42 86  1  0  0  0  0
 42 87  1  0  0  0  0
 43 88  1  0  0  0  0
 43 89  1  0  0  0  0
 43 90  1  0  0  0  0
 44 91  1  0  0  0  0
 44 92  1  0  0  0  0
 44 93  1  0  0  0  0
 45 94  1  0  0  0  0
 46 95  1  0  0  0  0
 46 96  1  0  0  0  0
 46 97  1  0  0  0  0
 48 98  1  0  0  0  0
 48 99  1  0  0  0  0
 48100  1  0  0  0  0
 50101  1  0  0  0  0
 50102  1  0  0  0  0
 50103  1  0  0  0  0
M  END
>  <charge>
0

>  <KI_NM>
0.024

>  <number_of_rotatable_bonds>
22

>  <lm5_entropy_jk>
56.95019395789525

>  <ligand_crystal_conformation>
B

$$$$
