2OXD
 OpenBabel11252210453D

 16 17  0  0  1  0  0  0  0  0999 V2000
   21.5000    8.1450   20.3360 C   0  0  0  0  0  0  0  0  0  0  0  0
   21.8140    8.5410   19.0010 C   0  0  0  0  0  0  0  0  0  0  0  0
   22.7680    7.8130   18.2430 C   0  0  0  0  0  0  0  0  0  0  0  0
   22.1000    6.9970   20.9100 C   0  0  0  0  0  0  0  0  0  0  0  0
   24.2210    5.7330   18.3350 N   0  0  0  0  0  0  0  0  0  0  0  0
   22.9860    6.2800   20.1110 C   0  0  0  0  0  0  0  0  0  0  0  0
   23.3230    6.6810   18.8430 C   0  0  0  0  0  0  0  0  0  0  0  0
   25.0280    3.7160   19.1150 O   0  0  0  0  0  0  0  0  0  0  0  0
   24.3820    4.7330   19.2600 C   0  0  0  0  0  0  0  0  0  0  0  0
   23.6670    5.0850   20.3740 N   0  0  0  0  0  0  0  0  0  0  0  0
   21.7140    6.4150   22.7000 Br  0  0  0  0  0  0  0  0  0  0  0  0
   20.2390    9.1490   21.3790 Br  0  0  0  0  0  0  0  0  0  0  0  0
   23.2830    8.3390   16.4680 Br  0  0  0  0  0  0  0  0  0  0  0  0
   20.9290   10.0540   18.2000 Br  0  0  0  0  0  0  0  0  0  0  0  0
   24.5790    5.6990   17.3930 H   0  0  0  0  0  0  0  0  0  0  0  0
   23.4710    4.4540   21.1370 H   0  0  0  0  0  0  0  0  0  0  0  0
  1  2  2  0  0  0  0
  1  4  1  0  0  0  0
  1 12  1  0  0  0  0
  2  3  1  0  0  0  0
  2 14  1  0  0  0  0
  3  7  2  0  0  0  0
  3 13  1  0  0  0  0
  4  6  2  0  0  0  0
  4 11  1  0  0  0  0
  5  7  1  0  0  0  0
  5  9  1  0  0  0  0
  5 15  1  0  0  0  0
  6  7  1  0  0  0  0
  6 10  1  0  0  0  0
  8  9  2  0  0  0  0
  9 10  1  0  0  0  0
 10 16  1  0  0  0  0
M  END
>  <charge>
0

>  <Ki_NM>
150

>  <number_of_rotatable_bonds>
0

>  <lm5_entropy_jk>
7.2278

$$$$
