22a-chB.pdb
 OpenBabel11252210453D

 88 92  0  0  1  0  0  0  0  0999 V2000
    1.8150    2.1410   11.6110 C   0  0  0  0  0  0  0  0  0  0  0  0
    2.3910    0.9090   11.9350 O   0  0  0  0  0  0  0  0  0  0  0  0
    2.6520    3.2110   11.2310 C   0  0  0  0  0  0  0  0  0  0  0  0
    5.3070    0.3270   16.7510 O   0  0  0  0  0  0  0  0  0  0  0  0
    3.7430   -1.4340   12.9270 O   0  0  0  0  0  0  0  0  0  0  0  0
    2.0540    4.3240   10.6230 C   0  0  0  0  0  0  0  0  0  0  0  0
    4.8690    0.1450   14.1370 N   0  0  0  0  0  0  0  0  0  0  0  0
    0.6720    4.3670   10.4180 C   0  0  0  0  0  0  0  0  0  0  0  0
    3.3380   -5.4870   17.0460 C   0  0  0  0  0  0  0  0  0  0  0  0
    5.8930   -3.8820   16.7190 N   0  0  0  0  0  0  0  0  0  0  0  0
   -0.1420    3.3340   10.8790 C   0  0  0  0  0  0  0  0  0  0  0  0
    3.9810   -6.4390   17.8500 C   0  0  0  0  0  0  0  0  0  0  0  0
    6.5210   -3.9280   14.5320 O   0  0  0  0  0  0  0  0  0  0  0  0
    0.4130    2.2110   11.5110 C   0  0  0  0  0  0  0  0  0  0  0  0
    3.8200   -7.8020   17.5870 C   0  0  0  0  0  0  0  0  0  0  0  0
   -0.4640    1.1370   12.0590 C   0  0  0  0  0  0  0  0  0  0  0  0
    3.0090   -8.2230   16.5300 C   0  0  0  0  0  0  0  0  0  0  0  0
    4.1250    3.1520   11.4410 C   0  0  0  0  0  0  0  0  0  0  0  0
    2.3670   -7.2730   15.7280 C   0  0  0  0  0  0  0  0  0  0  0  0
    2.5350   -5.9090   15.9750 C   0  0  0  0  0  0  0  0  0  0  0  0
    2.6360    0.7120   13.3460 C   0  0  0  0  0  0  0  0  0  0  0  0
    3.7710   -0.3200   13.4180 C   0  0  0  0  0  0  0  0  0  0  0  0
    5.9110   -0.7570   14.6650 C   0  0  1  0  0  0  0  0  0  0  0  0
    8.1330   -0.2470   10.7050 C   0  0  0  0  0  0  0  0  0  0  0  0
    7.8260    1.0570   10.3030 C   0  0  0  0  0  0  0  0  0  0  0  0
    7.3810    1.9850   11.2500 C   0  0  0  0  0  0  0  0  0  0  0  0
    7.2180    1.6030   12.5830 C   0  0  0  0  0  0  0  0  0  0  0  0
    7.5050    0.2880   12.9870 C   0  0  0  0  0  0  0  0  0  0  0  0
    7.9780   -0.6320   12.0400 C   0  0  0  0  0  0  0  0  0  0  0  0
    7.3020   -0.1150   14.4230 C   0  0  0  0  0  0  0  0  0  0  0  0
    5.6490   -0.9740   16.1900 C   0  0  2  0  0  0  0  0  0  0  0  0
    4.4300   -1.8230   16.5670 C   0  0  0  0  0  0  0  0  0  0  0  0
    4.5350   -3.3500   16.4040 C   0  0  2  0  0  0  0  0  0  0  0  0
    6.7570   -4.2240   15.6960 C   0  0  0  0  0  0  0  0  0  0  0  0
    8.0280   -5.0270   16.0240 C   0  0  1  0  0  0  0  0  0  0  0  0
    8.6340   -4.5600   17.2670 O   0  0  0  0  0  0  0  0  0  0  0  0
    3.4940   -4.0210   17.3350 C   0  0  0  0  0  0  0  0  0  0  0  0
    9.0020   -5.6500   18.0750 C   0  0  0  0  0  0  0  0  0  0  0  0
    9.6260   -5.4760   19.0850 O   0  0  0  0  0  0  0  0  0  0  0  0
    8.4440   -6.8180   17.5280 N   0  0  0  0  0  0  0  0  0  0  0  0
    7.7480   -6.5340   16.2390 C   0  0  0  0  0  0  0  0  0  0  0  0
    8.7830   -8.1600   17.9160 C   0  0  0  0  0  0  0  0  0  0  0  0
    7.8010   -9.1620   17.8250 C   0  0  0  0  0  0  0  0  0  0  0  0
    8.1100  -10.4600   18.2360 C   0  0  0  0  0  0  0  0  0  0  0  0
    9.3760  -10.7580   18.7480 C   0  0  0  0  0  0  0  0  0  0  0  0
   10.3440   -9.7540   18.8400 C   0  0  0  0  0  0  0  0  0  0  0  0
   10.0650   -8.4540   18.4120 C   0  0  0  0  0  0  0  0  0  0  0  0
   -0.5330    1.2470   13.1690 H   0  0  0  0  0  0  0  0  0  0  0  0
   -0.0700    0.1270   11.8060 H   0  0  0  0  0  0  0  0  0  0  0  0
    4.5800    2.4240   10.7210 H   0  0  0  0  0  0  0  0  0  0  0  0
    2.6750    5.1490   10.2650 H   0  0  0  0  0  0  0  0  0  0  0  0
    0.2300    5.2080    9.8750 H   0  0  0  0  0  0  0  0  0  0  0  0
    4.8730    1.0850   14.5780 H   0  0  0  0  0  0  0  0  0  0  0  0
    6.1050   -4.0580   17.7010 H   0  0  0  0  0  0  0  0  0  0  0  0
    4.2310   -1.5940   17.6470 H   0  0  0  0  0  0  0  0  0  0  0  0
    4.6030   -6.1210   18.6880 H   0  0  0  0  0  0  0  0  0  0  0  0
    4.3300   -8.5400   18.2110 H   0  0  0  0  0  0  0  0  0  0  0  0
    2.8860   -9.2900   16.3330 H   0  0  0  0  0  0  0  0  0  0  0  0
    1.7400   -7.5930   14.9030 H   0  0  0  0  0  0  0  0  0  0  0  0
    2.0260   -5.1780   15.3490 H   0  0  0  0  0  0  0  0  0  0  0  0
    1.7140    0.2950   13.8100 H   0  0  0  0  0  0  0  0  0  0  0  0
    5.8740   -1.7540   14.1470 H   0  0  0  0  0  0  0  0  0  0  0  0
    2.9370    1.6670   13.8210 H   0  0  0  0  0  0  0  0  0  0  0  0
   -1.2210    3.3720   10.7320 H   0  0  0  0  0  0  0  0  0  0  0  0
   -1.5030    1.2330   11.6580 H   0  0  0  0  0  0  0  0  0  0  0  0
    4.3760    2.8180   12.4750 H   0  0  0  0  0  0  0  0  0  0  0  0
    4.6090    4.1450   11.2720 H   0  0  0  0  0  0  0  0  0  0  0  0
    6.1930    0.6930   17.1300 H   0  0  0  0  0  0  0  0  0  0  0  0
    8.5020   -0.9600    9.9710 H   0  0  0  0  0  0  0  0  0  0  0  0
    7.9370    1.3570    9.2610 H   0  0  0  0  0  0  0  0  0  0  0  0
    7.1660    3.0140   10.9500 H   0  0  0  0  0  0  0  0  0  0  0  0
    6.8670    2.3350   13.3130 H   0  0  0  0  0  0  0  0  0  0  0  0
    8.2400   -1.6400   12.3530 H   0  0  0  0  0  0  0  0  0  0  0  0
    8.0930   -0.8290   14.7540 H   0  0  0  0  0  0  0  0  0  0  0  0
    7.4000    0.7950   15.0730 H   0  0  0  0  0  0  0  0  0  0  0  0
    6.5710   -1.3420   16.6960 H   0  0  0  0  0  0  0  0  0  0  0  0
    3.5380   -1.4730   15.9910 H   0  0  0  0  0  0  0  0  0  0  0  0
    4.3000   -3.6250   15.3380 H   0  0  0  0  0  0  0  0  0  0  0  0
    8.7990   -4.8330   15.2360 H   0  0  0  0  0  0  0  0  0  0  0  0
    3.7820   -3.8800   18.4080 H   0  0  0  0  0  0  0  0  0  0  0  0
    2.5060   -3.5090   17.2000 H   0  0  0  0  0  0  0  0  0  0  0  0
    8.1580   -7.1650   15.4110 H   0  0  0  0  0  0  0  0  0  0  0  0
    6.6510   -6.7570   16.3540 H   0  0  0  0  0  0  0  0  0  0  0  0
    6.8000   -8.9420   17.4480 H   0  0  0  0  0  0  0  0  0  0  0  0
    7.3480  -11.2430   18.1650 H   0  0  0  0  0  0  0  0  0  0  0  0
    9.6040  -11.7760   19.0780 H   0  0  0  0  0  0  0  0  0  0  0  0
   11.3300   -9.9890   19.2470 H   0  0  0  0  0  0  0  0  0  0  0  0
   10.8440   -7.6920   18.4670 H   0  0  0  0  0  0  0  0  0  0  0  0
  1  3  1  0  0  0  0
  1  2  1  0  0  0  0
  2 21  1  0  0  0  0
  3 18  1  0  0  0  0
  4 68  1  0  0  0  0
  5 22  2  0  0  0  0
  6 51  1  0  0  0  0
  6  3  2  0  0  0  0
  7 23  1  0  0  0  0
  7 53  1  0  0  0  0
  8  6  1  0  0  0  0
  9 37  1  0  0  0  0
  9 12  1  0  0  0  0
 10 54  1  0  0  0  0
 11  8  2  0  0  0  0
 11 14  1  0  0  0  0
 12 56  1  0  0  0  0
 13 34  2  0  0  0  0
 14  1  2  0  0  0  0
 15 12  2  0  0  0  0
 15 57  1  0  0  0  0
 16 14  1  0  0  0  0
 16 48  1  0  0  0  0
 17 15  1  0  0  0  0
 18 67  1  0  0  0  0
 18 66  1  0  0  0  0
 19 20  1  0  0  0  0
 19 17  2  0  0  0  0
 20  9  2  0  0  0  0
 21 63  1  0  0  0  0
 21 22  1  0  0  0  0
 21 61  1  0  0  0  0
 22  7  1  0  0  0  0
 23 62  1  6  0  0  0
 23 31  1  0  0  0  0
 24 29  1  0  0  0  0
 25 24  2  0  0  0  0
 25 26  1  0  0  0  0
 26 27  2  0  0  0  0
 27 28  1  0  0  0  0
 27 72  1  0  0  0  0
 28 30  1  0  0  0  0
 29 73  1  0  0  0  0
 29 28  2  0  0  0  0
 30 74  1  0  0  0  0
 30 23  1  0  0  0  0
 30 75  1  0  0  0  0
 31 76  1  1  0  0  0
 31  4  1  0  0  0  0
 31 32  1  0  0  0  0
 32 55  1  0  0  0  0
 33 78  1  6  0  0  0
 33 32  1  0  0  0  0
 33 10  1  0  0  0  0
 33 37  1  0  0  0  0
 34 35  1  0  0  0  0
 34 10  1  0  0  0  0
 35 79  1  6  0  0  0
 35 36  1  0  0  0  0
 36 38  1  0  0  0  0
 37 80  1  0  0  0  0
 38 39  2  0  0  0  0
 40 42  1  0  0  0  0
 40 38  1  0  0  0  0
 41 35  1  0  0  0  0
 41 83  1  0  0  0  0
 41 40  1  0  0  0  0
 42 47  1  0  0  0  0
 43 42  2  0  0  0  0
 43 44  1  0  0  0  0
 44 45  2  0  0  0  0
 45 46  1  0  0  0  0
 45 86  1  0  0  0  0
 46 87  1  0  0  0  0
 47 88  1  0  0  0  0
 47 46  2  0  0  0  0
 49 16  1  0  0  0  0
 50 18  1  0  0  0  0
 52  8  1  0  0  0  0
 58 17  1  0  0  0  0
 59 19  1  0  0  0  0
 60 20  1  0  0  0  0
 64 11  1  0  0  0  0
 65 16  1  0  0  0  0
 69 24  1  0  0  0  0
 70 25  1  0  0  0  0
 71 26  1  0  0  0  0
 77 32  1  0  0  0  0
 81 37  1  0  0  0  0
 82 41  1  0  0  0  0
 84 43  1  0  0  0  0
 85 44  1  0  0  0  0
M  END
>  <charge>
0

>  <KI_NM>
7.28

>  <number_of_rotatable_bonds>
16

>  <lm5_entropy_jk>
39.45594585765423

>  <ligand_crystal_conformation>
B

$$$$
