JAK1_6.pdb
 OpenBabel11252210453D

 46 50  0  0  1  0  0  0  0  0999 V2000
   -9.1720   30.3010    3.5360 C   0  0  0  0  0  0  0  0  0  0  0  0
  -10.0380   28.9170    2.9600 S   0  0  0  0  0  0  0  0  0  0  0  0
  -10.3210   29.2950    1.3210 N   0  0  0  0  0  0  0  0  0  0  0  0
  -11.6430   29.6850    0.8140 C   0  0  0  0  0  0  0  0  0  0  0  0
  -12.6300   28.5610    0.6220 C   0  0  0  0  0  0  0  0  0  0  0  0
  -13.9240   28.7810    0.0180 N   0  0  0  0  0  0  0  0  0  0  0  0
  -14.3050   30.1150   -0.5000 C   0  0  1  0  0  0  0  0  0  0  0  0
  -13.9070   30.3360   -2.0070 C   0  0  1  0  0  0  0  0  0  0  0  0
  -15.1890   29.8910   -2.7550 C   0  0  0  0  0  0  0  0  0  0  0  0
  -16.1210   30.8480   -1.9510 C   0  0  1  0  0  0  0  0  0  0  0  0
  -15.8180   30.4540   -0.4750 C   0  0  0  0  0  0  0  0  0  0  0  0
  -13.9320   31.8780   -2.2370 C   0  0  0  0  0  0  0  0  0  0  0  0
  -15.4470   32.2280   -2.2150 C   0  0  0  0  0  0  0  0  0  0  0  0
  -14.5780   27.5380    0.0170 C   0  0  0  0  0  0  0  0  0  0  0  0
  -15.8110   26.9990   -0.4330 C   0  0  0  0  0  0  0  0  0  0  0  0
  -16.9860   27.4220   -1.1330 C   0  0  0  0  0  0  0  0  0  0  0  0
  -17.8220   26.3250   -1.2920 C   0  0  0  0  0  0  0  0  0  0  0  0
  -17.2170   25.1920   -0.7230 N   0  0  0  0  0  0  0  0  0  0  0  0
  -15.9920   25.5860   -0.1780 C   0  0  0  0  0  0  0  0  0  0  0  0
  -15.1110   24.7210    0.4570 N   0  0  0  0  0  0  0  0  0  0  0  0
  -13.9580   25.2480    0.8600 C   0  0  0  0  0  0  0  0  0  0  0  0
  -13.6510   26.6270    0.6490 C   0  0  0  0  0  0  0  0  0  0  0  0
  -12.4690   27.2880    0.9970 N   0  0  0  0  0  0  0  0  0  0  0  0
   -9.1560   27.7440    3.0350 O   0  0  0  0  0  0  0  0  0  0  0  0
  -11.2940   28.7440    3.6470 O   0  0  0  0  0  0  0  0  0  0  0  0
  -11.4830   30.2090   -0.1730 H   0  0  0  0  0  0  0  0  0  0  0  0
  -12.0790   30.4320    1.5390 H   0  0  0  0  0  0  0  0  0  0  0  0
  -13.7770   30.8690    0.1420 H   0  0  0  0  0  0  0  0  0  0  0  0
  -12.9770   29.8510   -2.3150 H   0  0  0  0  0  0  0  0  0  0  0  0
  -15.4390   28.8250   -2.6270 H   0  0  0  0  0  0  0  0  0  0  0  0
  -15.1660   30.1350   -3.8330 H   0  0  0  0  0  0  0  0  0  0  0  0
  -17.1860   30.8160   -2.2160 H   0  0  0  0  0  0  0  0  0  0  0  0
  -16.4330   29.5990   -0.1420 H   0  0  0  0  0  0  0  0  0  0  0  0
  -16.0100   31.3180    0.1940 H   0  0  0  0  0  0  0  0  0  0  0  0
  -13.5020   32.1320   -3.2260 H   0  0  0  0  0  0  0  0  0  0  0  0
  -13.3810   32.4240   -1.4500 H   0  0  0  0  0  0  0  0  0  0  0  0
  -15.7700   32.6360   -3.1930 H   0  0  0  0  0  0  0  0  0  0  0  0
  -15.6950   32.9650   -1.4270 H   0  0  0  0  0  0  0  0  0  0  0  0
  -17.2180   28.3950   -1.5260 H   0  0  0  0  0  0  0  0  0  0  0  0
  -18.7780   26.2720   -1.7870 H   0  0  0  0  0  0  0  0  0  0  0  0
  -13.2380   24.5920    1.3740 H   0  0  0  0  0  0  0  0  0  0  0  0
  -17.6700   24.2780   -0.6280 H   0  0  0  0  0  0  0  0  0  0  0  0
   -9.6640   28.9690    0.5810 H   0  0  0  0  0  0  0  0  0  0  0  0
   -8.9890   30.2760    4.6440 H   0  0  0  0  0  0  0  0  0  0  0  0
   -9.7250   31.2660    3.3490 H   0  0  0  0  0  0  0  0  0  0  0  0
   -8.1680   30.4530    3.0640 H   0  0  0  0  0  0  0  0  0  0  0  0
  1  2  1  0  0  0  0
  3  2  1  0  0  0  0
  4  5  1  0  0  0  0
  4  3  1  0  0  0  0
  5 23  2  0  0  0  0
  5  6  1  0  0  0  0
  7  8  1  0  0  0  0
  7  6  1  0  0  0  0
  7 28  1  1  0  0  0
  8 29  1  6  0  0  0
  9 10  1  0  0  0  0
  9  8  1  0  0  0  0
 10 11  1  0  0  0  0
 10 13  1  0  0  0  0
 10 32  1  6  0  0  0
 11  7  1  0  0  0  0
 12 13  1  0  0  0  0
 12  8  1  0  0  0  0
 14 15  2  0  0  0  0
 14 22  1  0  0  0  0
 14  6  1  0  0  0  0
 15 16  1  0  0  0  0
 15 19  1  0  0  0  0
 16 17  2  0  0  0  0
 17 18  1  0  0  0  0
 19 18  1  0  0  0  0
 19 20  2  0  0  0  0
 21 22  2  0  0  0  0
 21 20  1  0  0  0  0
 22 23  1  0  0  0  0
 24  2  2  0  0  0  0
 25  2  2  0  0  0  0
 26  4  1  0  0  0  0
 27  4  1  0  0  0  0
 30  9  1  0  0  0  0
 31  9  1  0  0  0  0
 33 11  1  0  0  0  0
 34 11  1  0  0  0  0
 35 12  1  0  0  0  0
 36 12  1  0  0  0  0
 37 13  1  0  0  0  0
 38 13  1  0  0  0  0
 39 16  1  0  0  0  0
 40 17  1  0  0  0  0
 41 21  1  0  0  0  0
 42 18  1  0  0  0  0
 43  3  1  0  0  0  0
 44  1  1  0  0  0  0
 45  1  1  0  0  0  0
 46  1  1  0  0  0  0
M  END
>  <charge>
0

>  <pKi>
9.7

>  <number_of_rotatable_bonds>
4

>  <lm5_entropy_jk>
31.79286729643965

$$$$
