4E4N
 OpenBabel11252210453D

 48 51  0  0  1  0  0  0  0  0999 V2000
  -18.3880   36.7450   -1.5430 C   0  0  0  0  0  0  0  0  0  0  0  0
  -17.5740   36.5630   -2.8230 C   0  0  0  0  0  0  0  0  0  0  0  0
  -18.4390   36.6310   -4.0840 C   0  0  0  0  0  0  0  0  0  0  0  0
  -16.3500   37.4630   -2.9100 C   0  0  0  0  0  0  0  0  0  0  0  0
  -17.1640   35.1190   -2.8600 O   0  0  0  0  0  0  0  0  0  0  0  0
  -16.1980   34.6080   -2.0430 C   0  0  0  0  0  0  0  0  0  0  0  0
  -15.3610   35.2650   -1.4460 O   0  0  0  0  0  0  0  0  0  0  0  0
  -16.2970   33.2130   -1.9420 N   0  0  0  0  0  0  0  0  0  0  0  0
  -15.0420   32.4540   -1.6680 C   0  0  2  0  0  0  0  0  0  0  0  0
  -14.6480   31.5230   -2.8360 C   0  0  0  0  0  0  0  0  0  0  0  0
  -15.1180   30.1100   -2.4660 C   0  0  0  0  0  0  0  0  0  0  0  0
  -15.4700   30.1140   -0.9520 C   0  0  2  0  0  0  0  0  0  0  0  0
  -15.2020   31.5450   -0.4250 C   0  0  0  0  0  0  0  0  0  0  0  0
  -14.7290   29.0500   -0.2210 N   0  0  0  0  0  0  0  0  0  0  0  0
  -13.4190   29.0860    0.3510 C   0  0  0  0  0  0  0  0  0  0  0  0
  -13.0260   27.8760    0.7820 N   0  0  0  0  0  0  0  0  0  0  0  0
  -14.0700   26.9890    0.4850 C   0  0  0  0  0  0  0  0  0  0  0  0
  -15.1370   27.7100   -0.1590 C   0  0  0  0  0  0  0  0  0  0  0  0
  -16.2690   26.9970   -0.6020 C   0  0  0  0  0  0  0  0  0  0  0  0
  -17.4680   27.2650   -1.3300 C   0  0  0  0  0  0  0  0  0  0  0  0
  -18.1410   26.0590   -1.4780 C   0  0  0  0  0  0  0  0  0  0  0  0
  -17.3990   25.0240   -0.8800 N   0  0  0  0  0  0  0  0  0  0  0  0
  -16.2450   25.5820   -0.3210 C   0  0  0  0  0  0  0  0  0  0  0  0
  -15.2370   24.8770    0.3260 N   0  0  0  0  0  0  0  0  0  0  0  0
  -14.1700   25.5770    0.7100 C   0  0  0  0  0  0  0  0  0  0  0  0
  -17.0620   32.7410   -2.4770 H   0  0  0  0  0  0  0  0  0  0  0  0
  -14.2240   33.2040   -1.4860 H   0  0  0  0  0  0  0  0  0  0  0  0
  -15.1080   31.8530   -3.7910 H   0  0  0  0  0  0  0  0  0  0  0  0
  -13.5450   31.5560   -2.9640 H   0  0  0  0  0  0  0  0  0  0  0  0
  -14.3400   29.3570   -2.7100 H   0  0  0  0  0  0  0  0  0  0  0  0
  -16.0400   29.8410   -3.0400 H   0  0  0  0  0  0  0  0  0  0  0  0
  -16.5640   29.8760   -0.8290 H   0  0  0  0  0  0  0  0  0  0  0  0
  -14.2820   31.5910    0.1900 H   0  0  0  0  0  0  0  0  0  0  0  0
  -16.0500   31.8970    0.2050 H   0  0  0  0  0  0  0  0  0  0  0  0
  -12.8420   30.0000    0.4430 H   0  0  0  0  0  0  0  0  0  0  0  0
  -17.7970   28.2050   -1.7340 H   0  0  0  0  0  0  0  0  0  0  0  0
  -19.0700   25.8640   -1.9880 H   0  0  0  0  0  0  0  0  0  0  0  0
  -13.3520   25.0270    1.2090 H   0  0  0  0  0  0  0  0  0  0  0  0
  -17.7450   24.0670   -0.7610 H   0  0  0  0  0  0  0  0  0  0  0  0
  -18.7680   35.6050   -4.3640 H   0  0  0  0  0  0  0  0  0  0  0  0
  -17.8630   37.0410   -4.9510 H   0  0  0  0  0  0  0  0  0  0  0  0
  -19.3220   37.2920   -3.9230 H   0  0  0  0  0  0  0  0  0  0  0  0
  -17.7970   36.4620   -0.6450 H   0  0  0  0  0  0  0  0  0  0  0  0
  -19.3090   36.1190   -1.5660 H   0  0  0  0  0  0  0  0  0  0  0  0
  -18.7000   37.8140   -1.4470 H   0  0  0  0  0  0  0  0  0  0  0  0
  -15.7540   37.4330   -1.9690 H   0  0  0  0  0  0  0  0  0  0  0  0
  -15.6930   37.1580   -3.7580 H   0  0  0  0  0  0  0  0  0  0  0  0
  -16.6770   38.5160   -3.1000 H   0  0  0  0  0  0  0  0  0  0  0  0
  1  2  1  0  0  0  0
  2  3  1  0  0  0  0
  2  4  1  0  0  0  0
  2  5  1  0  0  0  0
  6  8  1  0  0  0  0
  6  5  1  0  0  0  0
  6  7  2  0  0  0  0
  9  8  1  0  0  0  0
  9 27  1  6  0  0  0
 10 11  1  0  0  0  0
 10  9  1  0  0  0  0
 11 12  1  0  0  0  0
 12 13  1  0  0  0  0
 12 14  1  0  0  0  0
 12 32  1  1  0  0  0
 13  9  1  0  0  0  0
 15 14  1  0  0  0  0
 15 16  2  0  0  0  0
 17 18  2  0  0  0  0
 17 25  1  0  0  0  0
 17 16  1  0  0  0  0
 18 19  1  0  0  0  0
 18 14  1  0  0  0  0
 19 20  1  0  0  0  0
 19 23  2  0  0  0  0
 20 21  2  0  0  0  0
 21 22  1  0  0  0  0
 23 22  1  0  0  0  0
 23 24  1  0  0  0  0
 25 24  2  0  0  0  0
 26  8  1  0  0  0  0
 28 10  1  0  0  0  0
 29 10  1  0  0  0  0
 30 11  1  0  0  0  0
 31 11  1  0  0  0  0
 33 13  1  0  0  0  0
 34 13  1  0  0  0  0
 35 15  1  0  0  0  0
 36 20  1  0  0  0  0
 37 21  1  0  0  0  0
 38 25  1  0  0  0  0
 39 22  1  0  0  0  0
 40  3  1  0  0  0  0
 41  3  1  0  0  0  0
 42  3  1  0  0  0  0
 43  1  1  0  0  0  0
 44  1  1  0  0  0  0
 45  1  1  0  0  0  0
 46  4  1  0  0  0  0
 47  4  1  0  0  0  0
 48  4  1  0  0  0  0
M  END
>  <charge>
0

>  <pKi>
9.05

>  <number_of_rotatable_bonds>
5

>  <lm5_entropy_jk>
42.87497332308547

$$$$
