model13a
 OpenBabel11252210453D

 87 90  0  0  1  0  0  0  0  0999 V2000
    7.1290   -7.8130   18.2490 C   0  0  0  0  0  0  0  0  0  0  0  0
    7.2500   -5.8950   16.8720 N   0  0  0  0  0  0  0  0  0  0  0  0
    8.0320   -5.7830   19.0010 O   0  0  0  0  0  0  0  0  0  0  0  0
    6.7210   -3.2450   14.6240 O   0  0  0  0  0  0  0  0  0  0  0  0
    7.5120   -6.4050   18.1020 C   0  0  0  0  0  0  0  0  0  0  0  0
    5.5600   -3.5580   16.5350 N   0  0  0  0  0  0  0  0  0  0  0  0
    6.9010    0.8310   12.5100 C   0  0  0  0  0  0  0  0  0  0  0  0
    4.2290    0.2490   13.6960 N   0  0  0  0  0  0  0  0  0  0  0  0
    5.1300    0.6640   16.5010 O   0  0  0  0  0  0  0  0  0  0  0  0
    6.4800    1.9990   11.8570 C   0  0  0  0  0  0  0  0  0  0  0  0
    3.3920   -1.6900   12.8750 O   0  0  0  0  0  0  0  0  0  0  0  0
    6.7380    2.1770   10.4870 C   0  0  0  0  0  0  0  0  0  0  0  0
    7.4230    1.1810    9.7730 C   0  0  0  0  0  0  0  0  0  0  0  0
    7.8560    0.0160   10.4280 C   0  0  0  0  0  0  0  0  0  0  0  0
    7.5880   -0.1590   11.7960 C   0  0  0  0  0  0  0  0  0  0  0  0
    7.7930   -4.5910   16.3680 C   0  0  2  0  0  0  0  0  0  0  0  0
    6.6720   -3.7130   15.7510 C   0  0  0  0  0  0  0  0  0  0  0  0
    4.2970   -3.0080   16.0720 C   0  0  1  0  0  0  0  0  0  0  0  0
    9.0060   -4.7710   15.4040 C   0  0  0  0  0  0  0  0  0  0  0  0
    9.9400   -3.5590   15.4860 C   0  0  0  0  0  0  0  0  0  0  0  0
    9.8680   -6.0050   15.7030 C   0  0  0  0  0  0  0  0  0  0  0  0
    2.3290   -7.1510   15.7150 C   0  0  0  0  0  0  0  0  0  0  0  0
    2.7660   -7.9320   16.7980 C   0  0  0  0  0  0  0  0  0  0  0  0
    3.3580   -7.3150   17.9120 C   0  0  0  0  0  0  0  0  0  0  0  0
    3.5160   -5.9190   17.9330 C   0  0  0  0  0  0  0  0  0  0  0  0
    3.0810   -5.1390   16.8510 C   0  0  0  0  0  0  0  0  0  0  0  0
    2.4880   -5.7560   15.7430 C   0  0  0  0  0  0  0  0  0  0  0  0
    3.1750   -3.6320   16.9190 C   0  0  0  0  0  0  0  0  0  0  0  0
    4.2130   -1.4910   16.3080 C   0  0  0  0  0  0  0  0  0  0  0  0
    5.3520   -0.5730   15.8330 C   0  0  1  0  0  0  0  0  0  0  0  0
    5.4590   -0.3130   14.2930 C   0  0  2  0  0  0  0  0  0  0  0  0
    3.3330   -0.4750   12.9550 C   0  0  0  0  0  0  0  0  0  0  0  0
    2.2570    0.3380   12.2090 C   0  0  1  0  0  0  0  0  0  0  0  0
    1.7130    1.4590   12.9650 O   0  0  0  0  0  0  0  0  0  0  0  0
    6.6370    0.6510   13.9870 C   0  0  0  0  0  0  0  0  0  0  0  0
    1.3830    2.5100   12.1520 C   0  0  0  0  0  0  0  0  0  0  0  0
    0.8450    3.5430   12.5030 O   0  0  0  0  0  0  0  0  0  0  0  0
    1.9570    2.2790   10.9250 N   0  0  0  0  0  0  0  0  0  0  0  0
    2.7250    1.0270   10.9130 C   0  0  0  0  0  0  0  0  0  0  0  0
    1.7710    3.0790    9.7730 C   0  0  0  0  0  0  0  0  0  0  0  0
    2.8400    3.3200    8.9010 C   0  0  0  0  0  0  0  0  0  0  0  0
    2.6620    4.0960    7.7430 C   0  0  0  0  0  0  0  0  0  0  0  0
    1.3980    4.6400    7.4630 C   0  0  0  0  0  0  0  0  0  0  0  0
    0.3210    4.4100    8.3340 C   0  0  0  0  0  0  0  0  0  0  0  0
    0.5120    3.6190    9.4790 C   0  0  0  0  0  0  0  0  0  0  0  0
    6.1130   -7.9510   17.8730 H   0  0  0  0  0  0  0  0  0  0  0  0
    6.8960   -6.5750   16.2050 H   0  0  0  0  0  0  0  0  0  0  0  0
    7.8180   -8.4270   17.6670 H   0  0  0  0  0  0  0  0  0  0  0  0
    5.5700   -4.0640   17.4100 H   0  0  0  0  0  0  0  0  0  0  0  0
    4.0540    1.2390   13.7780 H   0  0  0  0  0  0  0  0  0  0  0  0
    6.0090    0.8530   16.9270 H   0  0  0  0  0  0  0  0  0  0  0  0
    5.9580    2.7740   12.4160 H   0  0  0  0  0  0  0  0  0  0  0  0
    6.4120    3.0870    9.9810 H   0  0  0  0  0  0  0  0  0  0  0  0
    7.6170    1.3160    8.7100 H   0  0  0  0  0  0  0  0  0  0  0  0
    8.3940   -0.7510    9.8770 H   0  0  0  0  0  0  0  0  0  0  0  0
    7.9220   -1.0590   12.3080 H   0  0  0  0  0  0  0  0  0  0  0  0
    8.1450   -4.0150   17.2320 H   0  0  0  0  0  0  0  0  0  0  0  0
    4.1530   -3.2440   15.0010 H   0  0  0  0  0  0  0  0  0  0  0  0
    8.6120   -4.8650   14.3810 H   0  0  0  0  0  0  0  0  0  0  0  0
   10.7300   -3.6120   14.7280 H   0  0  0  0  0  0  0  0  0  0  0  0
    9.3780   -2.6330   15.3120 H   0  0  0  0  0  0  0  0  0  0  0  0
   10.4210   -3.4880   16.4710 H   0  0  0  0  0  0  0  0  0  0  0  0
   10.7070   -6.0680   15.0040 H   0  0  0  0  0  0  0  0  0  0  0  0
   10.2630   -5.9760   16.7270 H   0  0  0  0  0  0  0  0  0  0  0  0
    9.2840   -6.9270   15.5930 H   0  0  0  0  0  0  0  0  0  0  0  0
    1.8700   -7.6260   14.8540 H   0  0  0  0  0  0  0  0  0  0  0  0
    2.6420   -9.0140   16.7790 H   0  0  0  0  0  0  0  0  0  0  0  0
    3.6870   -7.9150   18.7610 H   0  0  0  0  0  0  0  0  0  0  0  0
    3.9640   -5.4390   18.8010 H   0  0  0  0  0  0  0  0  0  0  0  0
    2.1310   -5.1480   14.9170 H   0  0  0  0  0  0  0  0  0  0  0  0
    2.2130   -3.2010   16.6230 H   0  0  0  0  0  0  0  0  0  0  0  0
    3.3000   -3.3360   17.9670 H   0  0  0  0  0  0  0  0  0  0  0  0
    4.1660   -1.3510   17.3900 H   0  0  0  0  0  0  0  0  0  0  0  0
    3.2680   -1.1140   15.9050 H   0  0  0  0  0  0  0  0  0  0  0  0
    6.3110   -1.0060   16.1670 H   0  0  0  0  0  0  0  0  0  0  0  0
    5.6730   -1.2840   13.8220 H   0  0  0  0  0  0  0  0  0  0  0  0
    1.4580   -0.3790   11.9810 H   0  0  0  0  0  0  0  0  0  0  0  0
    6.4490    1.6250   14.4550 H   0  0  0  0  0  0  0  0  0  0  0  0
    7.5470    0.2840   14.4790 H   0  0  0  0  0  0  0  0  0  0  0  0
    2.5020    0.4270   10.0180 H   0  0  0  0  0  0  0  0  0  0  0  0
    3.8090    1.2330   10.9350 H   0  0  0  0  0  0  0  0  0  0  0  0
    3.8210    2.9150    9.1300 H   0  0  0  0  0  0  0  0  0  0  0  0
    3.5020    4.2860    7.0720 H   0  0  0  0  0  0  0  0  0  0  0  0
    1.2570    5.2540    6.5720 H   0  0  0  0  0  0  0  0  0  0  0  0
   -0.6580    4.8430    8.1220 H   0  0  0  0  0  0  0  0  0  0  0  0
   -0.3250    3.4210   10.1420 H   0  0  0  0  0  0  0  0  0  0  0  0
    7.1790   -8.0880   19.3050 H   0  0  0  0  0  0  0  0  0  0  0  0
  1  5  1  0  0  0  0
  1 46  1  0  0  0  0
  1 48  1  0  0  0  0
  1 87  1  0  0  0  0
  2  5  1  0  0  0  0
  2 16  1  0  0  0  0
  2 47  1  0  0  0  0
  3  5  2  0  0  0  0
  4 17  2  0  0  0  0
  6 17  1  0  0  0  0
  6 18  1  0  0  0  0
  6 49  1  0  0  0  0
  7 10  2  0  0  0  0
  7 15  1  0  0  0  0
  7 35  1  0  0  0  0
  8 31  1  0  0  0  0
  8 32  1  0  0  0  0
  8 50  1  0  0  0  0
  9 30  1  0  0  0  0
  9 51  1  0  0  0  0
 10 12  1  0  0  0  0
 10 52  1  0  0  0  0
 11 32  2  0  0  0  0
 12 13  2  0  0  0  0
 12 53  1  0  0  0  0
 13 14  1  0  0  0  0
 13 54  1  0  0  0  0
 14 15  2  0  0  0  0
 14 55  1  0  0  0  0
 15 56  1  0  0  0  0
 16 17  1  0  0  0  0
 16 19  1  0  0  0  0
 16 57  1  1  0  0  0
 18 28  1  0  0  0  0
 18 29  1  0  0  0  0
 18 58  1  6  0  0  0
 19 20  1  0  0  0  0
 19 21  1  0  0  0  0
 19 59  1  0  0  0  0
 20 60  1  0  0  0  0
 20 61  1  0  0  0  0
 20 62  1  0  0  0  0
 21 63  1  0  0  0  0
 21 64  1  0  0  0  0
 21 65  1  0  0  0  0
 22 23  2  0  0  0  0
 22 27  1  0  0  0  0
 22 66  1  0  0  0  0
 23 24  1  0  0  0  0
 23 67  1  0  0  0  0
 24 25  2  0  0  0  0
 24 68  1  0  0  0  0
 25 26  1  0  0  0  0
 25 69  1  0  0  0  0
 26 27  2  0  0  0  0
 26 28  1  0  0  0  0
 27 70  1  0  0  0  0
 28 71  1  0  0  0  0
 28 72  1  0  0  0  0
 29 30  1  0  0  0  0
 29 73  1  0  0  0  0
 29 74  1  0  0  0  0
 30 31  1  0  0  0  0
 30 75  1  1  0  0  0
 31 35  1  0  0  0  0
 31 76  1  6  0  0  0
 32 33  1  0  0  0  0
 33 34  1  0  0  0  0
 33 39  1  0  0  0  0
 33 77  1  1  0  0  0
 34 36  1  0  0  0  0
 35 78  1  0  0  0  0
 35 79  1  0  0  0  0
 36 37  2  0  0  0  0
 36 38  1  0  0  0  0
 38 39  1  0  0  0  0
 38 40  1  0  0  0  0
 39 80  1  0  0  0  0
 39 81  1  0  0  0  0
 40 41  2  0  0  0  0
 40 45  1  0  0  0  0
 41 42  1  0  0  0  0
 41 82  1  0  0  0  0
 42 43  2  0  0  0  0
 42 83  1  0  0  0  0
 43 44  1  0  0  0  0
 43 84  1  0  0  0  0
 44 45  2  0  0  0  0
 44 85  1  0  0  0  0
 45 86  1  0  0  0  0
M  END
>  <charge>
0

>  <KI_NM>
0.85

>  <number_of_rotatable_bonds>
17

>  <lm5_entropy_jk>
42.441311785015955

>  <ligand_crystal_conformation>
A

$$$$
