model08
 OpenBabel11252210453D

 74 75  0  0  1  0  0  0  0  0999 V2000
   11.1900   17.9000    7.5570 C   0  0  1  0  0  0  0  0  0  0  0  0
    8.3240   18.3970    8.9180 N   0  0  0  0  0  0  0  0  0  0  0  0
   12.0820   18.7280    6.8220 O   0  0  0  0  0  0  0  0  0  0  0  0
    9.7920   18.2170    6.9910 C   0  0  0  0  0  0  0  0  0  0  0  0
    4.7700   17.6170    9.6420 N   0  0  0  0  0  0  0  0  0  0  0  0
    5.6480   19.4810    8.6710 O   0  0  0  0  0  0  0  0  0  0  0  0
    8.6930   17.6580    7.8220 C   0  0  0  0  0  0  0  0  0  0  0  0
   11.7360   15.9810    6.0040 N   0  0  0  0  0  0  0  0  0  0  0  0
    8.1720   16.6010    7.5490 O   0  0  0  0  0  0  0  0  0  0  0  0
    7.2110   17.9690    9.8030 C   0  0  1  0  0  0  0  0  0  0  0  0
   10.2730   14.2260    5.9890 O   0  0  0  0  0  0  0  0  0  0  0  0
    7.5190   18.3780   11.2670 C   0  0  0  0  0  0  0  0  0  0  0  0
    5.8180   18.4510    9.3020 C   0  0  0  0  0  0  0  0  0  0  0  0
    3.4830   17.5940    8.9170 C   0  0  0  0  0  0  0  0  0  0  0  0
    3.4480   16.3870    7.9460 C   0  0  0  0  0  0  0  0  0  0  0  0
    4.4590   16.5190    6.7710 C   0  0  0  0  0  0  0  0  0  0  0  0
    3.9400   17.4630    5.6560 C   0  0  0  0  0  0  0  0  0  0  0  0
    5.0640   17.9500    4.7050 C   0  0  0  0  0  0  0  0  0  0  0  0
    5.9650   16.8060    4.1850 C   0  0  0  0  0  0  0  0  0  0  0  0
    6.8140   17.2640    2.9780 C   0  0  0  0  0  0  0  0  0  0  0  0
    7.7890   16.1620    2.5060 C   0  0  0  0  0  0  0  0  0  0  0  0
    9.0660   16.1250    3.3700 C   0  0  0  0  0  0  0  0  0  0  0  0
    9.9170   14.8720    3.0680 C   0  0  0  0  0  0  0  0  0  0  0  0
   11.2360   14.8980    3.9000 C   0  0  0  0  0  0  0  0  0  0  0  0
   11.6080   16.3820    7.4110 C   0  0  1  0  0  0  0  0  0  0  0  0
   11.0290   14.9740    5.3980 C   0  0  0  0  0  0  0  0  0  0  0  0
   12.9540   16.0900    8.1350 C   0  0  0  0  0  0  0  0  0  0  0  0
   13.4860   14.6730    7.9600 C   0  0  0  0  0  0  0  0  0  0  0  0
   12.7320   13.5710    8.3870 C   0  0  0  0  0  0  0  0  0  0  0  0
   13.2180   12.2620    8.2370 C   0  0  0  0  0  0  0  0  0  0  0  0
   14.4770   12.0490    7.6540 C   0  0  0  0  0  0  0  0  0  0  0  0
   15.2510   13.1460    7.2390 C   0  0  0  0  0  0  0  0  0  0  0  0
   14.7550   14.4530    7.3970 C   0  0  0  0  0  0  0  0  0  0  0  0
   15.3530   15.2990    7.0710 H   0  0  0  0  0  0  0  0  0  0  0  0
    8.7300   19.3240    9.0110 H   0  0  0  0  0  0  0  0  0  0  0  0
   11.2250   18.1670    8.6290 H   0  0  0  0  0  0  0  0  0  0  0  0
   12.7300   19.1060    7.4750 H   0  0  0  0  0  0  0  0  0  0  0  0
    9.6760   17.7860    5.9940 H   0  0  0  0  0  0  0  0  0  0  0  0
    5.0310   16.7710   10.1450 H   0  0  0  0  0  0  0  0  0  0  0  0
   12.3940   16.4870    5.4280 H   0  0  0  0  0  0  0  0  0  0  0  0
    7.1240   16.8770    9.7530 H   0  0  0  0  0  0  0  0  0  0  0  0
    8.4300   17.8920   11.6350 H   0  0  0  0  0  0  0  0  0  0  0  0
    6.6990   18.0760   11.9330 H   0  0  0  0  0  0  0  0  0  0  0  0
    7.6200   19.4670   11.3550 H   0  0  0  0  0  0  0  0  0  0  0  0
    3.3420   18.5360    8.3610 H   0  0  0  0  0  0  0  0  0  0  0  0
    2.4310   16.2590    7.5460 H   0  0  0  0  0  0  0  0  0  0  0  0
    4.6530   15.5290    6.3390 H   0  0  0  0  0  0  0  0  0  0  0  0
    3.4610   18.3460    6.1000 H   0  0  0  0  0  0  0  0  0  0  0  0
    5.6860   18.6890    5.2290 H   0  0  0  0  0  0  0  0  0  0  0  0
    5.3510   15.9440    3.8940 H   0  0  0  0  0  0  0  0  0  0  0  0
    7.3630   18.1850    3.2180 H   0  0  0  0  0  0  0  0  0  0  0  0
    8.0640   16.3360    1.4560 H   0  0  0  0  0  0  0  0  0  0  0  0
    8.7920   16.1320    4.4340 H   0  0  0  0  0  0  0  0  0  0  0  0
   10.1420   14.8160    1.9920 H   0  0  0  0  0  0  0  0  0  0  0  0
   11.8620   15.7400    3.5960 H   0  0  0  0  0  0  0  0  0  0  0  0
   10.8160   15.7700    7.8700 H   0  0  0  0  0  0  0  0  0  0  0  0
   12.8390   16.2990    9.2050 H   0  0  0  0  0  0  0  0  0  0  0  0
   11.7590   13.7360    8.8310 H   0  0  0  0  0  0  0  0  0  0  0  0
   12.6180   11.4160    8.5710 H   0  0  0  0  0  0  0  0  0  0  0  0
   14.8520   11.0340    7.5270 H   0  0  0  0  0  0  0  0  0  0  0  0
   16.2330   12.9840    6.7930 H   0  0  0  0  0  0  0  0  0  0  0  0
   13.6990   16.8070    7.7810 H   0  0  0  0  0  0  0  0  0  0  0  0
    9.6240   19.2900    6.9110 H   0  0  0  0  0  0  0  0  0  0  0  0
    2.6540   17.5240    9.6400 H   0  0  0  0  0  0  0  0  0  0  0  0
    3.6590   15.4670    8.5090 H   0  0  0  0  0  0  0  0  0  0  0  0
    5.4390   16.8650    7.1300 H   0  0  0  0  0  0  0  0  0  0  0  0
    3.1570   16.9540    5.0770 H   0  0  0  0  0  0  0  0  0  0  0  0
    4.6110   18.4850    3.8580 H   0  0  0  0  0  0  0  0  0  0  0  0
    6.6200   16.4630    4.9980 H   0  0  0  0  0  0  0  0  0  0  0  0
    6.1400   17.5130    2.1500 H   0  0  0  0  0  0  0  0  0  0  0  0
    7.2820   15.1890    2.5290 H   0  0  0  0  0  0  0  0  0  0  0  0
    9.6590   17.0340    3.1970 H   0  0  0  0  0  0  0  0  0  0  0  0
    9.3480   13.9630    3.3120 H   0  0  0  0  0  0  0  0  0  0  0  0
   11.8210   13.9900    3.7280 H   0  0  0  0  0  0  0  0  0  0  0  0
  1 36  1  1  0  0  0
  1 25  1  0  0  0  0
  2 35  1  0  0  0  0
  2 10  1  0  0  0  0
  3 37  1  0  0  0  0
  3  1  1  0  0  0  0
  4  1  1  0  0  0  0
  4  7  1  0  0  0  0
  5 39  1  0  0  0  0
  6 13  2  0  0  0  0
  7  2  1  0  0  0  0
  8 25  1  0  0  0  0
  9  7  2  0  0  0  0
 10 41  1  1  0  0  0
 10 12  1  0  0  0  0
 12 43  1  0  0  0  0
 12 42  1  0  0  0  0
 13  5  1  0  0  0  0
 13 10  1  0  0  0  0
 14  5  1  0  0  0  0
 14 64  1  0  0  0  0
 15 65  1  0  0  0  0
 15 14  1  0  0  0  0
 16 66  1  0  0  0  0
 16 15  1  0  0  0  0
 17 48  1  0  0  0  0
 17 16  1  0  0  0  0
 18 49  1  0  0  0  0
 18 17  1  0  0  0  0
 19 18  1  0  0  0  0
 19 69  1  0  0  0  0
 20 51  1  0  0  0  0
 20 19  1  0  0  0  0
 21 20  1  0  0  0  0
 21 22  1  0  0  0  0
 22 53  1  0  0  0  0
 23 22  1  0  0  0  0
 23 73  1  0  0  0  0
 23 24  1  0  0  0  0
 24 26  1  0  0  0  0
 25 56  1  1  0  0  0
 25 27  1  0  0  0  0
 26  8  1  0  0  0  0
 26 11  2  0  0  0  0
 27 57  1  0  0  0  0
 28 27  1  0  0  0  0
 28 29  2  0  0  0  0
 29 58  1  0  0  0  0
 30 29  1  0  0  0  0
 30 59  1  0  0  0  0
 31 30  2  0  0  0  0
 32 33  2  0  0  0  0
 32 31  1  0  0  0  0
 33 28  1  0  0  0  0
 34 33  1  0  0  0  0
 38  4  1  0  0  0  0
 40  8  1  0  0  0  0
 44 12  1  0  0  0  0
 45 14  1  0  0  0  0
 46 15  1  0  0  0  0
 47 16  1  0  0  0  0
 50 19  1  0  0  0  0
 52 21  1  0  0  0  0
 54 23  1  0  0  0  0
 55 24  1  0  0  0  0
 60 31  1  0  0  0  0
 61 32  1  0  0  0  0
 62 27  1  0  0  0  0
 63  4  1  0  0  0  0
 67 17  1  0  0  0  0
 68 18  1  0  0  0  0
 70 20  1  0  0  0  0
 71 21  1  0  0  0  0
 72 22  1  0  0  0  0
 74 24  1  0  0  0  0
M  END
>  <IC50_NM>
68.4

>  <number_of_rotatable_bonds>
2

>  <charge>
0

>  <lm5_entropy_jk>
22.370975242635136

$$$$
