5MNG
 OpenBabel11252210453D

 18 18  0  0  0  0  0  0  0  0999 V2000
   -2.7220   14.3360   14.2050 N   0  3  0  0  0  0  0  0  0  0  0  0
   -1.6000   12.4950   15.0560 N   0  0  0  0  0  0  0  0  0  0  0  0
   -1.9790   13.7950   15.2110 C   0  0  0  0  0  0  0  0  0  0  0  0
   -1.5590   14.5930   16.3780 C   0  0  0  0  0  0  0  0  0  0  0  0
   -1.5510   16.0020   16.3240 C   0  0  0  0  0  0  0  0  0  0  0  0
   -1.1810   16.7460   17.4440 C   0  0  0  0  0  0  0  0  0  0  0  0
   -0.8270   16.1000   18.6330 C   0  0  0  0  0  0  0  0  0  0  0  0
   -0.8480   14.7010   18.7010 C   0  0  0  0  0  0  0  0  0  0  0  0
   -1.2050   13.9490   17.5840 C   0  0  0  0  0  0  0  0  0  0  0  0
   -1.8350   16.5380   15.4140 H   0  0  0  0  0  0  0  0  0  0  0  0
   -1.1840   17.8430   17.3880 H   0  0  0  0  0  0  0  0  0  0  0  0
   -0.5360   16.6860   19.5160 H   0  0  0  0  0  0  0  0  0  0  0  0
   -0.5900   14.2030   19.6440 H   0  0  0  0  0  0  0  0  0  0  0  0
   -1.2190   12.8590   17.6590 H   0  0  0  0  0  0  0  0  0  0  0  0
   -3.1150   13.7030   13.4580 H   0  0  0  0  0  0  0  0  0  0  0  0
   -3.1130   15.2950   14.2540 H   0  0  0  0  0  0  0  0  0  0  0  0
   -0.9610   12.0210   15.7280 H   0  0  0  0  0  0  0  0  0  0  0  0
   -2.0790   11.8780   14.3560 H   0  0  0  0  0  0  0  0  0  0  0  0
  1  3  2  0  0  0  0
  1 15  1  0  0  0  0
  1 16  1  0  0  0  0
  2  3  1  0  0  0  0
  2 17  1  0  0  0  0
  2 18  1  0  0  0  0
  3  4  1  0  0  0  0
  4  5  2  0  0  0  0
  4  9  1  0  0  0  0
  5  6  1  0  0  0  0
  5 10  1  0  0  0  0
  6  7  2  0  0  0  0
  6 11  1  0  0  0  0
  7  8  1  0  0  0  0
  7 12  1  0  0  0  0
  8  9  2  0  0  0  0
  8 13  1  0  0  0  0
  9 14  1  0  0  0  0
M  CHG  1   1   1
M  END
>  <number_of_rotatable_bonds>
1

>  <lm5_entropy_jk>
14.133140156892344

>  <deltaG_kcalmol>
-6.40

>  <charge>
1

$$$$
