5QD0
 OpenBabel11252210453D

 80 81  0  0  1  0  0  0  0  0999 V2000
   30.5430    3.1770    9.0420 N   0  0  0  0  0  0  0  0  0  0  0  0
   30.1110    2.5020   10.1360 N   0  0  0  0  0  0  0  0  0  0  0  0
   31.1520    2.5160   11.0290 C   0  0  0  0  0  0  0  0  0  0  0  0
   32.2550    3.2400   10.4730 C   0  0  0  0  0  0  0  0  0  0  0  0
   31.8610    3.6460    9.1970 C   0  0  0  0  0  0  0  0  0  0  0  0
   32.5980    4.3430    8.1140 C   0  0  0  0  0  0  0  0  0  0  0  0
   34.0560    4.6670    8.4980 C   0  0  0  0  0  0  0  0  0  0  0  0
   34.8890    5.0440    7.2710 C   0  0  0  0  0  0  0  0  0  0  0  0
   31.1000    1.7890   12.3280 C   0  0  0  0  0  0  0  0  0  0  0  0
   31.8050    2.5800   13.4370 N   0  3  0  0  0  0  0  0  0  0  0  0
   31.0430    3.8410   13.8160 C   0  0  0  0  0  0  0  0  0  0  0  0
   31.9670    4.7780   14.6200 C   0  0  1  0  0  0  0  0  0  0  0  0
   33.0920    4.9900   13.7500 O   0  0  0  0  0  0  0  0  0  0  0  0
   31.2100    6.1150   14.9060 C   0  0  1  0  0  0  0  0  0  0  0  0
   30.0850    5.7470   15.8030 N   0  0  0  0  0  0  0  0  0  0  0  0
   28.7380    6.0250   15.5020 C   0  0  0  0  0  0  0  0  0  0  0  0
   27.7600    5.7700   16.6820 C   0  0  1  0  0  0  0  0  0  0  0  0
   27.9320    6.8360   17.7100 N   0  0  0  0  0  0  0  0  0  0  0  0
   27.5610    6.5310   19.0560 C   0  0  0  0  0  0  0  0  0  0  0  0
   27.7710    7.6170   20.1140 C   0  0  0  0  0  0  0  0  0  0  0  0
   28.4710    6.9320   21.1740 O   0  0  0  0  0  0  0  0  0  0  0  0
   29.6850    7.6100   21.6010 C   0  0  0  0  0  0  0  0  0  0  0  0
   30.9150    7.1300   20.8270 C   0  0  0  0  0  0  0  0  0  0  0  0
   31.0890    7.7390   19.4280 C   0  0  0  0  0  0  0  0  0  0  0  0
   31.3940    9.2440   19.4700 C   0  0  0  0  0  0  0  0  0  0  0  0
   31.4370    9.9250   18.0900 C   0  0  0  0  0  0  0  0  0  0  0  0
   32.2690    9.2130   17.0100 C   0  0  0  0  0  0  0  0  0  0  0  0
   31.3890    8.4030   16.0340 C   0  0  2  0  0  0  0  0  0  0  0  0
   32.1490    7.1460   15.5500 C   0  0  0  0  0  0  0  0  0  0  0  0
   30.9270    9.2790   14.8650 C   0  0  0  0  0  0  0  0  0  0  0  0
   27.1970    5.4170   19.3840 O   0  0  0  0  0  0  0  0  0  0  0  0
   27.7380    8.2310   17.2200 C   0  0  0  0  0  0  0  0  0  0  0  0
   26.3220    5.6370   16.1780 C   0  0  0  0  0  0  0  0  0  0  0  0
   28.3990    6.3010   14.3620 O   0  0  0  0  0  0  0  0  0  0  0  0
   33.1860    3.4610   10.9540 H   0  0  0  0  0  0  0  0  0  0  0  0
   32.0720    5.3000    7.8560 H   0  0  0  0  0  0  0  0  0  0  0  0
   32.5970    3.6920    7.1980 H   0  0  0  0  0  0  0  0  0  0  0  0
   34.0530    5.5130    9.2280 H   0  0  0  0  0  0  0  0  0  0  0  0
   34.5180    3.7760    8.9880 H   0  0  0  0  0  0  0  0  0  0  0  0
   30.0330    1.5970   12.6500 H   0  0  0  0  0  0  0  0  0  0  0  0
   31.6380    0.7990   12.2290 H   0  0  0  0  0  0  0  0  0  0  0  0
   32.7860    2.8610   13.1020 H   0  0  0  0  0  0  0  0  0  0  0  0
   31.8860    1.9830   14.3150 H   0  0  0  0  0  0  0  0  0  0  0  0
   30.7130    4.3600   12.8740 H   0  0  0  0  0  0  0  0  0  0  0  0
   30.1510    3.5590   14.4450 H   0  0  0  0  0  0  0  0  0  0  0  0
   32.3310    4.3100   15.5630 H   0  0  0  0  0  0  0  0  0  0  0  0
   30.8270    6.5340   13.9460 H   0  0  0  0  0  0  0  0  0  0  0  0
   30.3950    5.6580   16.7870 H   0  0  0  0  0  0  0  0  0  0  0  0
   28.0770    4.7960   17.1520 H   0  0  0  0  0  0  0  0  0  0  0  0
   26.7840    7.9370   20.5330 H   0  0  0  0  0  0  0  0  0  0  0  0
   28.3310    8.5060   19.7450 H   0  0  0  0  0  0  0  0  0  0  0  0
   29.7530    7.2850   22.6670 H   0  0  0  0  0  0  0  0  0  0  0  0
   29.5550    8.7120   21.5350 H   0  0  0  0  0  0  0  0  0  0  0  0
   31.8260    7.3880   21.4270 H   0  0  0  0  0  0  0  0  0  0  0  0
   30.8520    6.0240   20.7250 H   0  0  0  0  0  0  0  0  0  0  0  0
   30.1820    7.5590   18.8090 H   0  0  0  0  0  0  0  0  0  0  0  0
   31.9400    7.2280   18.9130 H   0  0  0  0  0  0  0  0  0  0  0  0
   30.6120    9.7730   20.0660 H   0  0  0  0  0  0  0  0  0  0  0  0
   32.3700    9.3980   19.9820 H   0  0  0  0  0  0  0  0  0  0  0  0
   31.8700   10.9450   18.2240 H   0  0  0  0  0  0  0  0  0  0  0  0
   30.3950   10.0590   17.7170 H   0  0  0  0  0  0  0  0  0  0  0  0
   32.8470    9.9740   16.4360 H   0  0  0  0  0  0  0  0  0  0  0  0
   32.9960    8.5260   17.4800 H   0  0  0  0  0  0  0  0  0  0  0  0
   30.4880    8.0600   16.5960 H   0  0  0  0  0  0  0  0  0  0  0  0
   32.6760    6.6720   16.4120 H   0  0  0  0  0  0  0  0  0  0  0  0
   32.9210    7.4420   14.7990 H   0  0  0  0  0  0  0  0  0  0  0  0
   29.9370    3.2980    8.2240 H   0  0  0  0  0  0  0  0  0  0  0  0
   26.2380    4.7660   15.4910 H   0  0  0  0  0  0  0  0  0  0  0  0
   25.6340    5.4690   17.0410 H   0  0  0  0  0  0  0  0  0  0  0  0
   25.9990    6.5630   15.6510 H   0  0  0  0  0  0  0  0  0  0  0  0
   33.9350    5.1360   14.3310 H   0  0  0  0  0  0  0  0  0  0  0  0
   30.1530    8.7530   14.2750 H   0  0  0  0  0  0  0  0  0  0  0  0
   31.7960    9.5160   14.2140 H   0  0  0  0  0  0  0  0  0  0  0  0
   30.5060   10.2290   15.2630 H   0  0  0  0  0  0  0  0  0  0  0  0
   27.9570    8.2950   16.1250 H   0  0  0  0  0  0  0  0  0  0  0  0
   26.6950    8.5970   17.4020 H   0  0  0  0  0  0  0  0  0  0  0  0
   28.4700    8.9090   17.7340 H   0  0  0  0  0  0  0  0  0  0  0  0
   35.8590    5.4810    7.6020 H   0  0  0  0  0  0  0  0  0  0  0  0
   35.1060    4.1380    6.6610 H   0  0  0  0  0  0  0  0  0  0  0  0
   34.3490    5.7890    6.6490 H   0  0  0  0  0  0  0  0  0  0  0  0
  1  2  1  0  0  0  0
  1  5  1  0  0  0  0
  2  3  2  0  0  0  0
  3  4  1  0  0  0  0
  3  9  1  0  0  0  0
  4  5  2  0  0  0  0
  5  6  1  0  0  0  0
  6  7  1  0  0  0  0
  7  8  1  0  0  0  0
  9 10  1  0  0  0  0
 10 11  1  0  0  0  0
 11 12  1  0  0  0  0
 12 13  1  0  0  0  0
 12 14  1  0  0  0  0
 12 46  1  1  0  0  0
 14 15  1  0  0  0  0
 14 29  1  0  0  0  0
 14 47  1  6  0  0  0
 15 16  1  0  0  0  0
 16 17  1  0  0  0  0
 16 34  2  0  0  0  0
 17 18  1  0  0  0  0
 17 33  1  0  0  0  0
 17 49  1  1  0  0  0
 18 19  1  0  0  0  0
 18 32  1  0  0  0  0
 19 20  1  0  0  0  0
 19 31  2  0  0  0  0
 20 21  1  0  0  0  0
 21 22  1  0  0  0  0
 22 23  1  0  0  0  0
 23 24  1  0  0  0  0
 24 25  1  0  0  0  0
 25 26  1  0  0  0  0
 26 27  1  0  0  0  0
 27 28  1  0  0  0  0
 28 29  1  0  0  0  0
 28 30  1  0  0  0  0
 28 64  1  1  0  0  0
 35  4  1  0  0  0  0
 36  6  1  0  0  0  0
 37  6  1  0  0  0  0
 38  7  1  0  0  0  0
 39  7  1  0  0  0  0
 40  9  1  0  0  0  0
 41  9  1  0  0  0  0
 42 10  1  0  0  0  0
 43 10  1  0  0  0  0
 44 11  1  0  0  0  0
 45 11  1  0  0  0  0
 48 15  1  0  0  0  0
 50 20  1  0  0  0  0
 51 20  1  0  0  0  0
 52 22  1  0  0  0  0
 53 22  1  0  0  0  0
 54 23  1  0  0  0  0
 55 23  1  0  0  0  0
 56 24  1  0  0  0  0
 57 24  1  0  0  0  0
 58 25  1  0  0  0  0
 59 25  1  0  0  0  0
 60 26  1  0  0  0  0
 61 26  1  0  0  0  0
 62 27  1  0  0  0  0
 63 27  1  0  0  0  0
 65 29  1  0  0  0  0
 66 29  1  0  0  0  0
 67  1  1  0  0  0  0
 68 33  1  0  0  0  0
 69 33  1  0  0  0  0
 70 33  1  0  0  0  0
 71 13  1  0  0  0  0
 72 30  1  0  0  0  0
 73 30  1  0  0  0  0
 74 30  1  0  0  0  0
 75 32  1  0  0  0  0
 76 32  1  0  0  0  0
 77 32  1  0  0  0  0
 78  8  1  0  0  0  0
 79  8  1  0  0  0  0
 80  8  1  0  0  0  0
M  CHG  1  10   1
M  END
>  <IC50_NM>
400

>  <number_of_rotatable_bonds>
7

>  <lm5_entropy_jk>
40.33161332203715

>  <charge>
1

>  <old_name>
BACE_5

>  <xray_resolution>
2.6

$$$$
