3QQK
 OpenBabel11252210453D

 31 32  0  0  0  0  0  0  0  0999 V2000
   62.7550  153.5700  -46.0010 C   0  0  0  0  0  0  0  0  0  0  0  0
   63.0100  154.0880  -47.2050 C   0  0  0  0  0  0  0  0  0  0  0  0
   63.9760  155.2280  -47.4030 C   0  0  0  0  0  0  0  0  0  0  0  0
   64.4760  155.2420  -48.7940 N   0  0  0  0  0  0  0  0  0  0  0  0
   65.4850  154.4580  -49.2730 C   0  0  0  0  0  0  0  0  0  0  0  0
   65.8160  154.5250  -50.5450 N   0  0  0  0  0  0  0  0  0  0  0  0
   66.8370  153.6440  -50.7770 C   0  0  0  0  0  0  0  0  0  0  0  0
   67.2900  152.9150  -49.7250 C   0  0  0  0  0  0  0  0  0  0  0  0
   66.3620  153.2920  -48.3030 S   0  0  0  0  0  0  0  0  0  0  0  0
   67.2620  153.5140  -52.0250 N   0  0  0  0  0  0  0  0  0  0  0  0
   68.3620  151.9140  -49.8360 C   0  0  0  0  0  0  0  0  0  0  0  0
   68.5760  150.9380  -48.6980 C   0  0  0  0  0  0  0  0  0  0  0  0
   67.4920  150.3360  -48.0210 C   0  0  0  0  0  0  0  0  0  0  0  0
   67.7100  149.3860  -47.0120 C   0  0  0  0  0  0  0  0  0  0  0  0
   69.0150  148.9970  -46.6840 C   0  0  0  0  0  0  0  0  0  0  0  0
   70.1000  149.5610  -47.3720 C   0  0  0  0  0  0  0  0  0  0  0  0
   69.8840  150.5270  -48.3720 C   0  0  0  0  0  0  0  0  0  0  0  0
   69.0550  151.8490  -50.8380 O   0  0  0  0  0  0  0  0  0  0  0  0
   62.0620  152.7430  -45.8680 H   0  0  0  0  0  0  0  0  0  0  0  0
   63.2340  153.9450  -45.0960 H   0  0  0  0  0  0  0  0  0  0  0  0
   62.5200  153.7050  -48.1050 H   0  0  0  0  0  0  0  0  0  0  0  0
   63.4660  156.1760  -47.1680 H   0  0  0  0  0  0  0  0  0  0  0  0
   64.8080  155.1330  -46.6970 H   0  0  0  0  0  0  0  0  0  0  0  0
   63.8510  155.5950  -49.5180 H   0  0  0  0  0  0  0  0  0  0  0  0
   67.0160  154.2190  -52.7080 H   0  0  0  0  0  0  0  0  0  0  0  0
   68.1090  152.9680  -52.1150 H   0  0  0  0  0  0  0  0  0  0  0  0
   66.4730  150.5880  -48.2930 H   0  0  0  0  0  0  0  0  0  0  0  0
   66.8630  148.9360  -46.4950 H   0  0  0  0  0  0  0  0  0  0  0  0
   69.1820  148.2420  -45.9150 H   0  0  0  0  0  0  0  0  0  0  0  0
   71.1070  149.2280  -47.1400 H   0  0  0  0  0  0  0  0  0  0  0  0
   70.7290  150.9510  -48.9150 H   0  0  0  0  0  0  0  0  0  0  0  0
  1  2  2  0  0  0  0
  1 19  1  0  0  0  0
  1 20  1  0  0  0  0
  2 21  1  0  0  0  0
  3  2  1  0  0  0  0
  3 22  1  0  0  0  0
  3 23  1  0  0  0  0
  4  3  1  0  0  0  0
  4 24  1  0  0  0  0
  5  4  1  0  0  0  0
  5  9  1  0  0  0  0
  6  5  2  0  0  0  0
  7  6  1  0  0  0  0
  7  8  2  0  0  0  0
  8  9  1  0  0  0  0
 10  7  1  0  0  0  0
 10 25  1  0  0  0  0
 10 26  1  0  0  0  0
 11  8  1  0  0  0  0
 11 12  1  0  0  0  0
 12 17  2  0  0  0  0
 12 13  1  0  0  0  0
 13 14  2  0  0  0  0
 13 27  1  0  0  0  0
 14 15  1  0  0  0  0
 14 28  1  0  0  0  0
 15 29  1  0  0  0  0
 16 15  2  0  0  0  0
 16 30  1  0  0  0  0
 17 16  1  0  0  0  0
 17 31  1  0  0  0  0
 18 11  2  0  0  0  0
M  END
>  <lm5_entropy_jk>
22.397995528352578

>  <number_of_rotatable_bonds>
5

>  <IC50_NM>
15000

>  <charge>
0

$$$$
