3rpy.pdb
 OpenBabel11252210453D

 31 32  0  0  0  0  0  0  0  0999 V2000
   68.7700  151.8770  -49.8300 C   0  0  0  0  0  0  0  0  0  0  0  0
   65.9600  154.3310  -50.5000 N   0  0  0  0  0  0  0  0  0  0  0  0
   60.1320  153.0530  -44.4160 O   0  0  0  0  0  0  0  0  0  0  0  0
   66.7440  153.0270  -48.2890 S   0  0  0  0  0  0  0  0  0  0  0  0
   67.5660  153.4850  -52.0750 N   0  0  0  0  0  0  0  0  0  0  0  0
   60.8980  154.9970  -43.0740 O   0  0  0  0  0  0  0  0  0  0  0  0
   61.2540  153.7800  -43.8180 S   0  0  0  0  0  0  0  0  0  0  0  0
   64.5510  154.8120  -48.6490 N   0  0  0  0  0  0  0  0  0  0  0  0
   62.0870  152.8110  -42.7010 N   0  0  0  0  0  0  0  0  0  0  0  0
   67.6520  152.7850  -49.7350 C   0  0  0  0  0  0  0  0  0  0  0  0
   67.1060  153.5280  -50.8000 C   0  0  0  0  0  0  0  0  0  0  0  0
   65.6200  154.1380  -49.2100 C   0  0  0  0  0  0  0  0  0  0  0  0
   63.8640  154.5070  -47.4370 C   0  0  0  0  0  0  0  0  0  0  0  0
   64.0460  153.3410  -46.6800 C   0  0  0  0  0  0  0  0  0  0  0  0
   63.2970  153.1590  -45.5140 C   0  0  0  0  0  0  0  0  0  0  0  0
   62.3420  154.1000  -45.1140 C   0  0  0  0  0  0  0  0  0  0  0  0
   62.1710  155.2700  -45.8700 C   0  0  0  0  0  0  0  0  0  0  0  0
   62.9220  155.4770  -47.0200 C   0  0  0  0  0  0  0  0  0  0  0  0
   69.4980  151.8220  -50.8260 O   0  0  0  0  0  0  0  0  0  0  0  0
   69.0430  151.0320  -48.7510 N   0  0  0  0  0  0  0  0  0  0  0  0
   67.1610  154.0930  -52.8120 H   0  0  0  0  0  0  0  0  0  0  0  0
   68.4400  152.9790  -52.2790 H   0  0  0  0  0  0  0  0  0  0  0  0
   63.9790  155.4110  -49.3010 H   0  0  0  0  0  0  0  0  0  0  0  0
   62.1880  151.7890  -42.9590 H   0  0  0  0  0  0  0  0  0  0  0  0
   61.9360  152.9260  -41.6900 H   0  0  0  0  0  0  0  0  0  0  0  0
   64.7340  152.5470  -46.9710 H   0  0  0  0  0  0  0  0  0  0  0  0
   63.4860  152.2530  -44.9260 H   0  0  0  0  0  0  0  0  0  0  0  0
   61.4430  156.0390  -45.5810 H   0  0  0  0  0  0  0  0  0  0  0  0
   62.7620  156.3810  -47.6100 H   0  0  0  0  0  0  0  0  0  0  0  0
   69.7820  150.3290  -48.8220 H   0  0  0  0  0  0  0  0  0  0  0  0
   68.4130  150.9370  -47.9480 H   0  0  0  0  0  0  0  0  0  0  0  0
  1 10  1  0  0  0  0
  1 20  1  0  0  0  0
  2 12  2  0  0  0  0
  3  7  2  0  0  0  0
  5 11  1  0  0  0  0
  5 21  1  0  0  0  0
  5 22  1  0  0  0  0
  7  6  2  0  0  0  0
  7  9  1  0  0  0  0
  8 13  1  0  0  0  0
  8 23  1  0  0  0  0
  9 24  1  0  0  0  0
  9 25  1  0  0  0  0
 10  4  1  0  0  0  0
 11  2  1  0  0  0  0
 11 10  2  0  0  0  0
 12  8  1  0  0  0  0
 12  4  1  0  0  0  0
 13 18  2  0  0  0  0
 13 14  1  0  0  0  0
 14 15  2  0  0  0  0
 14 26  1  0  0  0  0
 15 16  1  0  0  0  0
 15 27  1  0  0  0  0
 16  7  1  0  0  0  0
 17 16  2  0  0  0  0
 17 28  1  0  0  0  0
 18 17  1  0  0  0  0
 18 29  1  0  0  0  0
 19  1  2  0  0  0  0
 20 30  1  0  0  0  0
 20 31  1  0  0  0  0
M  END
>  <lm5_entropy_jk>
19.643205717801273

>  <number_of_rotatable_bonds>
4

>  <IC50_NM>
4800

>  <charge>
0

$$$$
