4K6Z
 OpenBabel11252210453D

 39 42  0  0  1  0  0  0  0  0999 V2000
  -17.4160   25.0830   -0.8850 N   0  0  0  0  0  0  0  0  0  0  0  0
  -17.2850   27.4910   -1.0610 C   0  0  0  0  0  0  0  0  0  0  0  0
  -15.6340   23.8770   -0.1330 O   0  0  0  0  0  0  0  0  0  0  0  0
  -17.9650   26.3270   -1.2510 C   0  0  0  0  0  0  0  0  0  0  0  0
  -13.9870   28.5310    0.5180 N   0  0  0  0  0  0  0  0  0  0  0  0
  -16.1170   24.9680   -0.3290 C   0  0  0  0  0  0  0  0  0  0  0  0
  -14.2580   26.1400    0.6380 N   0  0  0  0  0  0  0  0  0  0  0  0
  -15.4270   26.2700   -0.0430 C   0  0  0  0  0  0  0  0  0  0  0  0
  -10.7010   26.0740    2.9000 N   0  0  0  0  0  0  0  0  0  0  0  0
  -15.9800   27.5040   -0.4490 C   0  0  0  0  0  0  0  0  0  0  0  0
  -10.4990   27.4290    2.9220 N   0  0  0  0  0  0  0  0  0  0  0  0
  -15.1780   28.6580   -0.1470 C   0  0  0  0  0  0  0  0  0  0  0  0
  -15.5770   29.9970   -0.3790 N   0  0  0  0  0  0  0  0  0  0  0  0
  -13.5730   27.2840    0.9370 C   0  0  0  0  0  0  0  0  0  0  0  0
  -12.7060   29.0710   -2.4580 N   0  0  0  0  0  0  0  0  0  0  0  0
  -12.3590   27.1290    1.7180 C   0  0  0  0  0  0  0  0  0  0  0  0
  -11.8280   25.8640    2.1790 C   0  0  0  0  0  0  0  0  0  0  0  0
  -11.4890   28.1100    2.2210 C   0  0  0  0  0  0  0  0  0  0  0  0
  -15.9440   30.4700   -1.7410 C   0  0  1  0  0  0  0  0  0  0  0  0
  -16.5750   31.8870   -1.6150 C   0  0  0  0  0  0  0  0  0  0  0  0
  -15.6290   32.8990   -2.2960 C   0  0  0  0  0  0  0  0  0  0  0  0
  -14.2960   32.1560   -2.4660 C   0  0  0  0  0  0  0  0  0  0  0  0
  -14.7270   30.6910   -2.7130 C   0  0  1  0  0  0  0  0  0  0  0  0
  -13.6190   29.7710   -2.5610 C   0  0  0  0  0  0  0  0  0  0  0  0
  -17.7630   28.4260   -1.3580 H   0  0  0  0  0  0  0  0  0  0  0  0
  -18.9580   26.3030   -1.7150 H   0  0  0  0  0  0  0  0  0  0  0  0
  -18.0200   24.2340   -0.9220 H   0  0  0  0  0  0  0  0  0  0  0  0
  -14.9960   30.6940    0.1170 H   0  0  0  0  0  0  0  0  0  0  0  0
  -16.6640   29.7570   -2.2130 H   0  0  0  0  0  0  0  0  0  0  0  0
  -16.7140   32.1760   -0.5490 H   0  0  0  0  0  0  0  0  0  0  0  0
  -17.5770   31.8940   -2.1070 H   0  0  0  0  0  0  0  0  0  0  0  0
  -16.0380   33.2000   -3.2890 H   0  0  0  0  0  0  0  0  0  0  0  0
  -15.5220   33.8190   -1.6800 H   0  0  0  0  0  0  0  0  0  0  0  0
  -13.7180   32.2280   -1.5200 H   0  0  0  0  0  0  0  0  0  0  0  0
   -9.7240   27.8470    3.4370 H   0  0  0  0  0  0  0  0  0  0  0  0
  -11.5120   29.1880    2.1490 H   0  0  0  0  0  0  0  0  0  0  0  0
  -12.2320   24.8730    1.9810 H   0  0  0  0  0  0  0  0  0  0  0  0
  -13.6980   32.5590   -3.3020 H   0  0  0  0  0  0  0  0  0  0  0  0
  -15.1390   30.5960   -3.7580 H   0  0  0  0  0  0  0  0  0  0  0  0
  1  6  1  0  0  0  0
  2 10  1  0  0  0  0
  4  2  2  0  0  0  0
  4  1  1  0  0  0  0
  5 14  2  0  0  0  0
  6  8  1  0  0  0  0
  6  3  2  0  0  0  0
  7 14  1  0  0  0  0
  8  7  2  0  0  0  0
 10 12  2  0  0  0  0
 10  8  1  0  0  0  0
 11 35  1  0  0  0  0
 11  9  1  0  0  0  0
 12  5  1  0  0  0  0
 13 28  1  0  0  0  0
 13 12  1  0  0  0  0
 14 16  1  0  0  0  0
 15 24  3  0  0  0  0
 16 17  1  0  0  0  0
 17  9  2  0  0  0  0
 17 37  1  0  0  0  0
 18 16  2  0  0  0  0
 18 11  1  0  0  0  0
 19 29  1  6  0  0  0
 19 20  1  0  0  0  0
 19 13  1  0  0  0  0
 19 23  1  0  0  0  0
 20 30  1  0  0  0  0
 21 33  1  0  0  0  0
 21 20  1  0  0  0  0
 22 34  1  0  0  0  0
 22 21  1  0  0  0  0
 23 39  1  6  0  0  0
 23 22  1  0  0  0  0
 24 23  1  0  0  0  0
 25  2  1  0  0  0  0
 26  4  1  0  0  0  0
 27  1  1  0  0  0  0
 31 20  1  0  0  0  0
 32 21  1  0  0  0  0
 36 18  1  0  0  0  0
 38 22  1  0  0  0  0
M  END
>  <charge>
0

>  <pKi>
8.7

>  <number_of_rotatable_bonds>
3
3

>  <lm5_entropy_jk>
20.793680313784687

$$$$
