1HXW
 OpenBabel11252210453D

 98101  0  0  1  0  0  0  0  0999 V2000
    1.1030    2.7760   11.9780 C   0  0  0  0  0  0  0  0  0  0  0  0
    1.3390    1.6840   11.1890 C   0  0  0  0  0  0  0  0  0  0  0  0
    1.3250    2.0630    9.5020 S   0  0  0  0  0  0  0  0  0  0  0  0
    1.0000    3.7140    9.9560 C   0  0  0  0  0  0  0  0  0  0  0  0
    0.9310    3.9380   11.2610 N   0  0  0  0  0  0  0  0  0  0  0  0
    1.8310    0.3940   11.7720 C   0  0  0  0  0  0  0  0  0  0  0  0
    2.8710    0.7590   12.7030 O   0  0  0  0  0  0  0  0  0  0  0  0
    3.7050   -0.1940   13.1740 C   0  0  0  0  0  0  0  0  0  0  0  0
    4.7080    0.4030   13.8590 N   0  0  0  0  0  0  0  0  0  0  0  0
    5.8470   -0.2840   14.4740 C   0  0  2  0  0  0  0  0  0  0  0  0
    5.6220   -0.5370   16.0030 C   0  0  2  0  0  0  0  0  0  0  0  0
    4.4000   -1.3970   16.3440 C   0  0  0  0  0  0  0  0  0  0  0  0
    4.4510   -2.8640   15.9560 C   0  0  2  0  0  0  0  0  0  0  0  0
    6.6710   -3.9760   15.7720 C   0  0  0  0  0  0  0  0  0  0  0  0
    7.7200   -4.7550   16.6100 C   0  0  1  0  0  0  0  0  0  0  0  0
    7.1890   -6.1010   17.0240 N   0  0  0  0  0  0  0  0  0  0  0  0
    6.8890   -6.4470   18.3150 C   0  0  0  0  0  0  0  0  0  0  0  0
    3.5940   -1.3930   12.9820 O   0  0  0  0  0  0  0  0  0  0  0  0
    7.1050    0.5900   14.2230 C   0  0  0  0  0  0  0  0  0  0  0  0
    7.3640    0.9100   12.7600 C   0  0  0  0  0  0  0  0  0  0  0  0
    7.8060   -0.0890   11.8810 C   0  0  0  0  0  0  0  0  0  0  0  0
    8.0740    0.2160   10.5340 C   0  0  0  0  0  0  0  0  0  0  0  0
    7.8770    1.5230   10.0600 C   0  0  0  0  0  0  0  0  0  0  0  0
    7.4220    2.5250   10.9330 C   0  0  0  0  0  0  0  0  0  0  0  0
    7.1720    2.2150   12.2810 C   0  0  0  0  0  0  0  0  0  0  0  0
    5.3920    0.6980   16.6670 O   0  0  0  0  0  0  0  0  0  0  0  0
    3.2100   -3.5270   16.5460 C   0  0  0  0  0  0  0  0  0  0  0  0
    3.0620   -4.9360   16.0560 C   0  0  0  0  0  0  0  0  0  0  0  0
    3.4930   -5.9920   16.8590 C   0  0  0  0  0  0  0  0  0  0  0  0
    3.4350   -7.3040   16.3840 C   0  0  0  0  0  0  0  0  0  0  0  0
    2.9830   -7.5570   15.0900 C   0  0  0  0  0  0  0  0  0  0  0  0
    2.5100   -6.5000   14.2920 C   0  0  0  0  0  0  0  0  0  0  0  0
    2.5500   -5.1870   14.7790 C   0  0  0  0  0  0  0  0  0  0  0  0
    5.6230   -3.5010   16.5150 N   0  0  0  0  0  0  0  0  0  0  0  0
    6.7420   -3.7760   14.5650 O   0  0  0  0  0  0  0  0  0  0  0  0
    9.1310   -4.8610   15.9660 C   0  0  0  0  0  0  0  0  0  0  0  0
    9.7460   -3.4770   15.7070 C   0  0  0  0  0  0  0  0  0  0  0  0
   10.1050   -5.5720   16.9220 C   0  0  0  0  0  0  0  0  0  0  0  0
    6.3410   -7.7310   18.4650 N   0  0  0  0  0  0  0  0  0  0  0  0
    5.6730   -8.1350   19.7210 C   0  0  0  0  0  0  0  0  0  0  0  0
    7.0820   -5.6950   19.2530 O   0  0  0  0  0  0  0  0  0  0  0  0
    4.1850   -8.3030   19.6210 C   0  0  0  0  0  0  0  0  0  0  0  0
    3.3430   -7.2810   19.9680 C   0  0  0  0  0  0  0  0  0  0  0  0
    1.6860   -7.7570   19.7800 S   0  0  0  0  0  0  0  0  0  0  0  0
    2.2520   -9.3320   19.2670 C   0  0  0  0  0  0  0  0  0  0  0  0
    3.5710   -9.4880   19.2680 N   0  0  0  0  0  0  0  0  0  0  0  0
    1.2600  -10.4170   18.8490 C   0  0  0  0  0  0  0  0  0  0  0  0
    0.3510  -10.8720   20.0160 C   0  0  0  0  0  0  0  0  0  0  0  0
    1.9190  -11.6960   18.2770 C   0  0  0  0  0  0  0  0  0  0  0  0
    6.4650   -8.8290   17.4730 C   0  0  0  0  0  0  0  0  0  0  0  0
    1.1040    2.7860   13.0590 H   0  0  0  0  0  0  0  0  0  0  0  0
    0.8750    4.4630    9.1800 H   0  0  0  0  0  0  0  0  0  0  0  0
    2.2340   -0.2430   10.9680 H   0  0  0  0  0  0  0  0  0  0  0  0
    1.0200   -0.1590   12.2710 H   0  0  0  0  0  0  0  0  0  0  0  0
    4.6210    1.4010   13.9870 H   0  0  0  0  0  0  0  0  0  0  0  0
    5.9860   -1.2680   13.9960 H   0  0  0  0  0  0  0  0  0  0  0  0
    6.5260   -1.0200   16.4120 H   0  0  0  0  0  0  0  0  0  0  0  0
    3.5180   -0.9430   15.8880 H   0  0  0  0  0  0  0  0  0  0  0  0
    4.2540   -1.3390   17.4240 H   0  0  0  0  0  0  0  0  0  0  0  0
    4.4480   -2.9690   14.8560 H   0  0  0  0  0  0  0  0  0  0  0  0
    7.8280   -4.1370   17.5080 H   0  0  0  0  0  0  0  0  0  0  0  0
    6.9360   -6.7940   16.3240 H   0  0  0  0  0  0  0  0  0  0  0  0
    7.9770    0.1020   14.6680 H   0  0  0  0  0  0  0  0  0  0  0  0
    7.0030    1.5250   14.7870 H   0  0  0  0  0  0  0  0  0  0  0  0
    7.9420   -1.1000   12.2510 H   0  0  0  0  0  0  0  0  0  0  0  0
    8.4310   -0.5570    9.8600 H   0  0  0  0  0  0  0  0  0  0  0  0
    8.0730    1.7630    9.0150 H   0  0  0  0  0  0  0  0  0  0  0  0
    7.2670    3.5410   10.5680 H   0  0  0  0  0  0  0  0  0  0  0  0
    6.8210    2.9910   12.9590 H   0  0  0  0  0  0  0  0  0  0  0  0
    6.2110    0.8150   17.2120 H   0  0  0  0  0  0  0  0  0  0  0  0
    2.3250   -2.9480   16.2820 H   0  0  0  0  0  0  0  0  0  0  0  0
    3.2640   -3.5110   17.6410 H   0  0  0  0  0  0  0  0  0  0  0  0
    3.9120   -5.7920   17.8390 H   0  0  0  0  0  0  0  0  0  0  0  0
    3.7640   -8.1220   17.0130 H   0  0  0  0  0  0  0  0  0  0  0  0
    3.0160   -8.5790   14.7220 H   0  0  0  0  0  0  0  0  0  0  0  0
    2.1360   -6.6860   13.2910 H   0  0  0  0  0  0  0  0  0  0  0  0
    2.2160   -4.3600   14.1590 H   0  0  0  0  0  0  0  0  0  0  0  0
    5.6470   -3.6800   17.5130 H   0  0  0  0  0  0  0  0  0  0  0  0
    9.0410   -5.4210   15.0170 H   0  0  0  0  0  0  0  0  0  0  0  0
   10.7120   -3.5610   15.1990 H   0  0  0  0  0  0  0  0  0  0  0  0
    9.1030   -2.8700   15.0580 H   0  0  0  0  0  0  0  0  0  0  0  0
    9.9010   -2.9210   16.6400 H   0  0  0  0  0  0  0  0  0  0  0  0
   11.1390   -5.5110   16.5740 H   0  0  0  0  0  0  0  0  0  0  0  0
   10.0620   -5.1280   17.9240 H   0  0  0  0  0  0  0  0  0  0  0  0
    9.8510   -6.6340   17.0200 H   0  0  0  0  0  0  0  0  0  0  0  0
    5.8480   -7.3690   20.4830 H   0  0  0  0  0  0  0  0  0  0  0  0
    6.1250   -9.0570   20.1010 H   0  0  0  0  0  0  0  0  0  0  0  0
    3.5960   -6.2810   20.3020 H   0  0  0  0  0  0  0  0  0  0  0  0
    0.6280   -9.9660   18.0630 H   0  0  0  0  0  0  0  0  0  0  0  0
   -0.4310  -11.5610   19.6660 H   0  0  0  0  0  0  0  0  0  0  0  0
    0.9150  -11.3930   20.8010 H   0  0  0  0  0  0  0  0  0  0  0  0
   -0.1630  -10.0200   20.4810 H   0  0  0  0  0  0  0  0  0  0  0  0
    2.5660  -12.1820   19.0200 H   0  0  0  0  0  0  0  0  0  0  0  0
    1.1700  -12.4310   17.9520 H   0  0  0  0  0  0  0  0  0  0  0  0
    2.5450  -11.4590   17.4060 H   0  0  0  0  0  0  0  0  0  0  0  0
    5.7660   -8.6620   16.6480 H   0  0  0  0  0  0  0  0  0  0  0  0
    7.4840   -8.8590   17.0640 H   0  0  0  0  0  0  0  0  0  0  0  0
    6.2350   -9.8070   17.9170 H   0  0  0  0  0  0  0  0  0  0  0  0
  1  2  2  0  0  0  0
  1  5  1  0  0  0  0
  1 51  1  0  0  0  0
  2  3  1  0  0  0  0
  2  6  1  0  0  0  0
  3  4  1  0  0  0  0
  4  5  2  0  0  0  0
  4 52  1  0  0  0  0
  6  7  1  0  0  0  0
  6 53  1  0  0  0  0
  6 54  1  0  0  0  0
  7  8  1  0  0  0  0
  8  9  1  0  0  0  0
  8 18  2  0  0  0  0
  9 10  1  0  0  0  0
  9 55  1  0  0  0  0
 10 11  1  0  0  0  0
 10 19  1  0  0  0  0
 10 56  1  6  0  0  0
 11 12  1  0  0  0  0
 11 26  1  0  0  0  0
 11 57  1  1  0  0  0
 12 13  1  0  0  0  0
 12 58  1  0  0  0  0
 12 59  1  0  0  0  0
 13 27  1  0  0  0  0
 13 34  1  0  0  0  0
 13 60  1  6  0  0  0
 14 15  1  0  0  0  0
 14 34  1  0  0  0  0
 14 35  2  0  0  0  0
 15 16  1  0  0  0  0
 15 36  1  0  0  0  0
 15 61  1  1  0  0  0
 16 17  1  0  0  0  0
 16 62  1  0  0  0  0
 17 39  1  0  0  0  0
 17 41  2  0  0  0  0
 19 20  1  0  0  0  0
 19 63  1  0  0  0  0
 19 64  1  0  0  0  0
 20 21  2  0  0  0  0
 20 25  1  0  0  0  0
 21 22  1  0  0  0  0
 21 65  1  0  0  0  0
 22 23  2  0  0  0  0
 22 66  1  0  0  0  0
 23 24  1  0  0  0  0
 23 67  1  0  0  0  0
 24 25  2  0  0  0  0
 24 68  1  0  0  0  0
 25 69  1  0  0  0  0
 26 70  1  0  0  0  0
 27 28  1  0  0  0  0
 27 71  1  0  0  0  0
 27 72  1  0  0  0  0
 28 29  2  0  0  0  0
 28 33  1  0  0  0  0
 29 30  1  0  0  0  0
 29 73  1  0  0  0  0
 30 31  2  0  0  0  0
 30 74  1  0  0  0  0
 31 32  1  0  0  0  0
 31 75  1  0  0  0  0
 32 33  2  0  0  0  0
 32 76  1  0  0  0  0
 33 77  1  0  0  0  0
 34 78  1  0  0  0  0
 36 37  1  0  0  0  0
 36 38  1  0  0  0  0
 36 79  1  0  0  0  0
 37 80  1  0  0  0  0
 37 81  1  0  0  0  0
 37 82  1  0  0  0  0
 38 83  1  0  0  0  0
 38 84  1  0  0  0  0
 38 85  1  0  0  0  0
 39 40  1  0  0  0  0
 39 50  1  0  0  0  0
 40 42  1  0  0  0  0
 40 86  1  0  0  0  0
 40 87  1  0  0  0  0
 42 43  2  0  0  0  0
 42 46  1  0  0  0  0
 43 44  1  0  0  0  0
 43 88  1  0  0  0  0
 44 45  1  0  0  0  0
 45 46  2  0  0  0  0
 45 47  1  0  0  0  0
 47 48  1  0  0  0  0
 47 49  1  0  0  0  0
 47 89  1  0  0  0  0
 48 90  1  0  0  0  0
 48 91  1  0  0  0  0
 48 92  1  0  0  0  0
 49 93  1  0  0  0  0
 49 94  1  0  0  0  0
 49 95  1  0  0  0  0
 50 96  1  0  0  0  0
 50 97  1  0  0  0  0
 50 98  1  0  0  0  0
M  END
>  <charge>
0

>  <KI_NM>
0.015

>  <number_of_rotatable_bonds>
22

>  <lm5_entropy_jk>
52.938673341193955

>  <ligand_crystal_conformation>
A

$$$$
