model16e
 OpenBabel11252210453D

 93 97  0  0  1  0  0  0  0  0999 V2000
    8.4480   -6.1270   17.5710 C   0  0  0  0  0  0  0  0  0  0  0  0
    8.0490   -5.4280   16.4260 O   0  0  0  0  0  0  0  0  0  0  0  0
    7.4720   -6.7270   18.3900 C   0  0  0  0  0  0  0  0  0  0  0  0
    6.5450   -3.5490   14.5770 O   0  0  0  0  0  0  0  0  0  0  0  0
    7.8900   -7.7190   19.2890 C   0  0  0  0  0  0  0  0  0  0  0  0
    5.4660   -3.4420   16.5940 N   0  0  0  0  0  0  0  0  0  0  0  0
    9.2360   -8.0720   19.3850 C   0  0  0  0  0  0  0  0  0  0  0  0
    7.3380    0.7460   12.7330 C   0  0  0  0  0  0  0  0  0  0  0  0
    4.5830    0.3320   13.6600 N   0  0  0  0  0  0  0  0  0  0  0  0
    5.1940    0.7690   16.4310 O   0  0  0  0  0  0  0  0  0  0  0  0
   10.2010   -7.3800   18.6520 C   0  0  0  0  0  0  0  0  0  0  0  0
    7.0610    2.0190   12.2080 C   0  0  0  0  0  0  0  0  0  0  0  0
    4.6140   -1.0420   11.8310 O   0  0  0  0  0  0  0  0  0  0  0  0
    9.8240   -6.3680   17.7570 C   0  0  0  0  0  0  0  0  0  0  0  0
    7.2730    2.2780   10.8510 C   0  0  0  0  0  0  0  0  0  0  0  0
    6.0440   -6.3230   18.3210 C   0  0  0  0  0  0  0  0  0  0  0  0
    7.7530    1.2700   10.0110 C   0  0  0  0  0  0  0  0  0  0  0  0
   10.8460   -5.5610   17.0400 C   0  0  0  0  0  0  0  0  0  0  0  0
    8.0580    0.0100   10.5380 C   0  0  0  0  0  0  0  0  0  0  0  0
    7.8640   -0.2510   11.8950 C   0  0  0  0  0  0  0  0  0  0  0  0
    7.8630   -4.0030   16.5780 C   0  0  0  0  0  0  0  0  0  0  0  0
    6.5860   -3.6560   15.7910 C   0  0  0  0  0  0  0  0  0  0  0  0
    4.1950   -2.8810   16.0750 C   0  0  1  0  0  0  0  0  0  0  0  0
    2.2020   -6.8990   15.5900 C   0  0  0  0  0  0  0  0  0  0  0  0
    2.4340   -7.6930   16.7180 C   0  0  0  0  0  0  0  0  0  0  0  0
    2.8360   -7.0930   17.9140 C   0  0  0  0  0  0  0  0  0  0  0  0
    3.0280   -5.7100   17.9760 C   0  0  0  0  0  0  0  0  0  0  0  0
    2.8230   -4.9150   16.8380 C   0  0  0  0  0  0  0  0  0  0  0  0
    2.3970   -5.5180   15.6440 C   0  0  0  0  0  0  0  0  0  0  0  0
    3.0190   -3.4300   16.9270 C   0  0  0  0  0  0  0  0  0  0  0  0
    4.1690   -1.3410   16.2130 C   0  0  0  0  0  0  0  0  0  0  0  0
    5.4190   -0.5450   15.8430 C   0  0  1  0  0  0  0  0  0  0  0  0
    5.7140   -0.3560   14.3300 C   0  0  2  0  0  0  0  0  0  0  0  0
    4.2140   -0.0210   12.3710 C   0  0  0  0  0  0  0  0  0  0  0  0
    3.1490    0.8710   11.6920 C   0  0  1  0  0  0  0  0  0  0  0  0
    3.0430    2.1380   12.4110 O   0  0  0  0  0  0  0  0  0  0  0  0
    7.0350    0.4470   14.1730 C   0  0  0  0  0  0  0  0  0  0  0  0
    3.2240    3.2310   11.5490 C   0  0  0  0  0  0  0  0  0  0  0  0
    3.1270    4.3540   11.9660 O   0  0  0  0  0  0  0  0  0  0  0  0
    3.4300    2.7450   10.2450 N   0  0  0  0  0  0  0  0  0  0  0  0
    3.4980    1.2530   10.2360 C   0  0  0  0  0  0  0  0  0  0  0  0
    3.8410    3.5590    9.1370 C   0  0  0  0  0  0  0  0  0  0  0  0
    4.8100    3.1120    8.2230 C   0  0  0  0  0  0  0  0  0  0  0  0
    5.1790    3.9450    7.1630 C   0  0  0  0  0  0  0  0  0  0  0  0
    4.6100    5.2110    7.0050 C   0  0  0  0  0  0  0  0  0  0  0  0
    3.6360    5.6410    7.9140 C   0  0  0  0  0  0  0  0  0  0  0  0
    3.2420    4.8250    8.9740 C   0  0  0  0  0  0  0  0  0  0  0  0
    6.2140    3.4690    6.1730 C   0  0  0  0  0  0  0  0  0  0  0  0
    5.8930    2.8530    5.1770 O   0  0  0  0  0  0  0  0  0  0  0  0
    7.6240    3.8330    6.5090 C   0  0  0  0  0  0  0  0  0  0  0  0
    5.3960   -7.0260   18.8970 H   0  0  0  0  0  0  0  0  0  0  0  0
    5.6810   -6.2960   17.2660 H   0  0  0  0  0  0  0  0  0  0  0  0
    5.9100   -5.3040   18.7570 H   0  0  0  0  0  0  0  0  0  0  0  0
    5.5410   -3.4290   17.6280 H   0  0  0  0  0  0  0  0  0  0  0  0
    4.3480    1.2570   14.0410 H   0  0  0  0  0  0  0  0  0  0  0  0
    6.0490    0.9570   16.9650 H   0  0  0  0  0  0  0  0  0  0  0  0
    6.6910    2.8120   12.8610 H   0  0  0  0  0  0  0  0  0  0  0  0
    7.1530   -8.2370   19.9080 H   0  0  0  0  0  0  0  0  0  0  0  0
    7.0700    3.2720   10.4450 H   0  0  0  0  0  0  0  0  0  0  0  0
    7.8980    1.4720    8.9500 H   0  0  0  0  0  0  0  0  0  0  0  0
    9.5380   -8.8880   20.0490 H   0  0  0  0  0  0  0  0  0  0  0  0
    8.4510   -0.7660    9.8820 H   0  0  0  0  0  0  0  0  0  0  0  0
   11.2520   -7.6500   18.7620 H   0  0  0  0  0  0  0  0  0  0  0  0
    8.1260   -1.2250   12.3070 H   0  0  0  0  0  0  0  0  0  0  0  0
    7.7650   -3.7170   17.6390 H   0  0  0  0  0  0  0  0  0  0  0  0
    4.0710   -3.1810   15.0050 H   0  0  0  0  0  0  0  0  0  0  0  0
    8.7460   -3.5100   16.1050 H   0  0  0  0  0  0  0  0  0  0  0  0
   11.8770   -5.9200   17.2810 H   0  0  0  0  0  0  0  0  0  0  0  0
   10.7930   -4.4930   17.3670 H   0  0  0  0  0  0  0  0  0  0  0  0
   10.6910   -5.6070   15.9370 H   0  0  0  0  0  0  0  0  0  0  0  0
    1.8670   -7.3600   14.6640 H   0  0  0  0  0  0  0  0  0  0  0  0
    2.2990   -8.7750   16.6760 H   0  0  0  0  0  0  0  0  0  0  0  0
    2.9980   -7.7010   18.8080 H   0  0  0  0  0  0  0  0  0  0  0  0
    3.3340   -5.2470   18.9160 H   0  0  0  0  0  0  0  0  0  0  0  0
    2.2010   -4.9000   14.7710 H   0  0  0  0  0  0  0  0  0  0  0  0
    2.0830   -2.9110   16.6050 H   0  0  0  0  0  0  0  0  0  0  0  0
    3.1900   -3.1440   17.9990 H   0  0  0  0  0  0  0  0  0  0  0  0
    4.0240   -1.1250   17.3060 H   0  0  0  0  0  0  0  0  0  0  0  0
    3.2850   -0.9560   15.6540 H   0  0  0  0  0  0  0  0  0  0  0  0
    6.3230   -0.9810   16.3380 H   0  0  0  0  0  0  0  0  0  0  0  0
    5.8490   -1.3800   13.8760 H   0  0  0  0  0  0  0  0  0  0  0  0
    2.1390    0.3960   11.7860 H   0  0  0  0  0  0  0  0  0  0  0  0
    6.9570    1.3950   14.7680 H   0  0  0  0  0  0  0  0  0  0  0  0
    7.8660   -0.1370   14.6440 H   0  0  0  0  0  0  0  0  0  0  0  0
    2.7310    0.8570    9.5170 H   0  0  0  0  0  0  0  0  0  0  0  0
    4.5150    0.8950    9.9320 H   0  0  0  0  0  0  0  0  0  0  0  0
    5.2820    2.1330    8.3260 H   0  0  0  0  0  0  0  0  0  0  0  0
    4.9190    5.8650    6.1860 H   0  0  0  0  0  0  0  0  0  0  0  0
    3.1780    6.6290    7.7920 H   0  0  0  0  0  0  0  0  0  0  0  0
    2.4750    5.1870    9.6640 H   0  0  0  0  0  0  0  0  0  0  0  0
    8.3640    3.2610    5.8990 H   0  0  0  0  0  0  0  0  0  0  0  0
    7.7870    4.9260    6.3120 H   0  0  0  0  0  0  0  0  0  0  0  0
    7.8420    3.6550    7.5920 H   0  0  0  0  0  0  0  0  0  0  0  0
  1  2  1  0  0  0  0
  1  3  2  0  0  0  0
  1 14  1  0  0  0  0
  2 21  1  0  0  0  0
  3  5  1  0  0  0  0
  3 16  1  0  0  0  0
  4 22  2  0  0  0  0
  5  7  2  0  0  0  0
  5 58  1  0  0  0  0
  6 22  1  0  0  0  0
  6 23  1  0  0  0  0
  6 54  1  0  0  0  0
  7 11  1  0  0  0  0
  7 61  1  0  0  0  0
  8 12  2  0  0  0  0
  8 20  1  0  0  0  0
  8 37  1  0  0  0  0
  9 33  1  0  0  0  0
  9 34  1  0  0  0  0
  9 55  1  0  0  0  0
 10 32  1  0  0  0  0
 10 56  1  0  0  0  0
 11 14  2  0  0  0  0
 11 63  1  0  0  0  0
 12 15  1  0  0  0  0
 12 57  1  0  0  0  0
 13 34  2  0  0  0  0
 14 18  1  0  0  0  0
 15 17  2  0  0  0  0
 15 59  1  0  0  0  0
 16 51  1  0  0  0  0
 16 52  1  0  0  0  0
 16 53  1  0  0  0  0
 17 19  1  0  0  0  0
 17 60  1  0  0  0  0
 18 68  1  0  0  0  0
 18 69  1  0  0  0  0
 18 70  1  0  0  0  0
 19 20  2  0  0  0  0
 19 62  1  0  0  0  0
 20 64  1  0  0  0  0
 21 22  1  0  0  0  0
 21 65  1  0  0  0  0
 21 67  1  0  0  0  0
 23 30  1  0  0  0  0
 23 31  1  0  0  0  0
 23 66  1  6  0  0  0
 24 25  2  0  0  0  0
 24 29  1  0  0  0  0
 24 71  1  0  0  0  0
 25 26  1  0  0  0  0
 25 72  1  0  0  0  0
 26 27  2  0  0  0  0
 26 73  1  0  0  0  0
 27 28  1  0  0  0  0
 27 74  1  0  0  0  0
 28 29  2  0  0  0  0
 28 30  1  0  0  0  0
 29 75  1  0  0  0  0
 30 76  1  0  0  0  0
 30 77  1  0  0  0  0
 31 32  1  0  0  0  0
 31 78  1  0  0  0  0
 31 79  1  0  0  0  0
 32 33  1  0  0  0  0
 32 80  1  1  0  0  0
 33 37  1  0  0  0  0
 33 81  1  6  0  0  0
 34 35  1  0  0  0  0
 35 36  1  0  0  0  0
 35 41  1  0  0  0  0
 35 82  1  6  0  0  0
 36 38  1  0  0  0  0
 37 83  1  0  0  0  0
 37 84  1  0  0  0  0
 38 39  2  0  0  0  0
 38 40  1  0  0  0  0
 40 41  1  0  0  0  0
 40 42  1  0  0  0  0
 41 85  1  0  0  0  0
 41 86  1  0  0  0  0
 42 43  2  0  0  0  0
 42 47  1  0  0  0  0
 43 44  1  0  0  0  0
 43 87  1  0  0  0  0
 44 45  2  0  0  0  0
 44 48  1  0  0  0  0
 45 46  1  0  0  0  0
 45 88  1  0  0  0  0
 46 47  2  0  0  0  0
 46 89  1  0  0  0  0
 47 90  1  0  0  0  0
 48 49  2  0  0  0  0
 48 50  1  0  0  0  0
 50 91  1  0  0  0  0
 50 92  1  0  0  0  0
 50 93  1  0  0  0  0
M  END
>  <charge>
0

>  <KI_NM>
35.11

>  <number_of_rotatable_bonds>
17

>  <lm5_entropy_jk>
43.769413455775634

>  <ligand_crystal_conformation>
A

$$$$
