3RPV
 OpenBabel11252210453D

 41 43  0  0  0  0  0  0  0  0999 V2000
   65.8440  154.4390  -50.5320 N   0  0  0  0  0  0  0  0  0  0  0  0
   64.5040  154.9460  -48.7230 N   0  0  0  0  0  0  0  0  0  0  0  0
   67.2510  153.5380  -52.1240 N   0  0  0  0  0  0  0  0  0  0  0  0
   67.2350  148.6630  -46.4510 N   0  0  0  0  0  0  0  0  0  0  0  0
   61.9030  153.8140  -42.8950 N   0  0  0  0  0  0  0  0  0  0  0  0
   67.4140  152.8540  -49.8560 C   0  0  0  0  0  0  0  0  0  0  0  0
   66.8860  153.6100  -50.8520 C   0  0  0  0  0  0  0  0  0  0  0  0
   65.5590  154.2780  -49.2560 C   0  0  0  0  0  0  0  0  0  0  0  0
   63.7860  154.8330  -47.5580 C   0  0  0  0  0  0  0  0  0  0  0  0
   68.4920  151.8760  -50.0560 C   0  0  0  0  0  0  0  0  0  0  0  0
   68.8300  150.9090  -48.9250 C   0  0  0  0  0  0  0  0  0  0  0  0
   70.1780  150.5690  -48.6940 C   0  0  0  0  0  0  0  0  0  0  0  0
   70.5250  149.6270  -47.7150 C   0  0  0  0  0  0  0  0  0  0  0  0
   69.5250  149.0080  -46.9570 C   0  0  0  0  0  0  0  0  0  0  0  0
   68.1900  149.3150  -47.1790 C   0  0  0  0  0  0  0  0  0  0  0  0
   67.8390  150.2500  -48.1530 C   0  0  0  0  0  0  0  0  0  0  0  0
   63.6730  153.6230  -46.8730 C   0  0  0  0  0  0  0  0  0  0  0  0
   62.8650  153.5140  -45.7400 C   0  0  0  0  0  0  0  0  0  0  0  0
   62.1770  154.6530  -45.3000 C   0  0  0  0  0  0  0  0  0  0  0  0
   62.2760  155.8810  -45.9640 C   0  0  0  0  0  0  0  0  0  0  0  0
   63.0790  155.9420  -47.1040 C   0  0  0  0  0  0  0  0  0  0  0  0
   69.0970  151.8280  -51.1160 O   0  0  0  0  0  0  0  0  0  0  0  0
   60.1270  153.3980  -44.2220 O   0  0  0  0  0  0  0  0  0  0  0  0
   60.7020  155.7240  -43.2970 O   0  0  0  0  0  0  0  0  0  0  0  0
   66.5960  153.1800  -48.3650 S   0  0  0  0  0  0  0  0  0  0  0  0
   61.0530  154.4920  -43.9890 S   0  0  0  0  0  0  0  0  0  0  0  0
   64.0440  155.5460  -49.3990 H   0  0  0  0  0  0  0  0  0  0  0  0
   66.9660  154.2620  -52.7730 H   0  0  0  0  0  0  0  0  0  0  0  0
   68.0930  152.9980  -52.2800 H   0  0  0  0  0  0  0  0  0  0  0  0
   66.2530  148.8110  -46.6530 H   0  0  0  0  0  0  0  0  0  0  0  0
   67.4930  147.7590  -46.0650 H   0  0  0  0  0  0  0  0  0  0  0  0
   61.1610  153.1230  -43.0040 H   0  0  0  0  0  0  0  0  0  0  0  0
   61.4700  154.5800  -42.3810 H   0  0  0  0  0  0  0  0  0  0  0  0
   70.9530  151.0350  -49.3010 H   0  0  0  0  0  0  0  0  0  0  0  0
   71.5630  149.3580  -47.5570 H   0  0  0  0  0  0  0  0  0  0  0  0
   69.7860  148.2660  -46.2060 H   0  0  0  0  0  0  0  0  0  0  0  0
   66.7890  150.4420  -48.3370 H   0  0  0  0  0  0  0  0  0  0  0  0
   64.1750  152.7380  -47.2400 H   0  0  0  0  0  0  0  0  0  0  0  0
   62.7750  152.5450  -45.2340 H   0  0  0  0  0  0  0  0  0  0  0  0
   61.7200  156.7720  -45.6480 H   0  0  0  0  0  0  0  0  0  0  0  0
   63.1310  156.8680  -47.6610 H   0  0  0  0  0  0  0  0  0  0  0  0
  1  8  2  0  0  0  0
  2  9  1  0  0  0  0
  2 27  1  0  0  0  0
  3  7  1  0  0  0  0
  3 28  1  0  0  0  0
  3 29  1  0  0  0  0
  4 30  1  0  0  0  0
  4 31  1  0  0  0  0
  5 32  1  0  0  0  0
  5 33  1  0  0  0  0
  6 25  1  0  0  0  0
  7  1  1  0  0  0  0
  7  6  2  0  0  0  0
  8  2  1  0  0  0  0
  8 25  1  0  0  0  0
  9 21  2  0  0  0  0
  9 17  1  0  0  0  0
 10  6  1  0  0  0  0
 10 11  1  0  0  0  0
 11 12  2  0  0  0  0
 11 16  1  0  0  0  0
 12 13  1  0  0  0  0
 12 34  1  0  0  0  0
 13 14  2  0  0  0  0
 13 35  1  0  0  0  0
 14 36  1  0  0  0  0
 15 14  1  0  0  0  0
 15  4  1  0  0  0  0
 16 15  2  0  0  0  0
 16 37  1  0  0  0  0
 17 18  2  0  0  0  0
 17 38  1  0  0  0  0
 18 19  1  0  0  0  0
 18 39  1  0  0  0  0
 19 26  1  0  0  0  0
 20 19  2  0  0  0  0
 20 40  1  0  0  0  0
 21 20  1  0  0  0  0
 21 41  1  0  0  0  0
 22 10  2  0  0  0  0
 23 26  2  0  0  0  0
 26 24  2  0  0  0  0
 26  5  1  0  0  0  0
M  END
>  <lm5_entropy_jk>
21.154920599914565

>  <number_of_rotatable_bonds>
5

>  <IC50_NM>
70

>  <charge>
0

$$$$
