3RPV
 OpenBabel11252210453D

 41 43  0  0  0  0  0  0  0  0999 V2000
   65.9160  154.3050  -50.5560 N   0  0  0  0  0  0  0  0  0  0  0  0
   64.5250  154.7450  -48.7770 N   0  0  0  0  0  0  0  0  0  0  0  0
   67.3050  153.4030  -52.1500 N   0  0  0  0  0  0  0  0  0  0  0  0
   67.3820  148.5880  -46.3700 N   0  0  0  0  0  0  0  0  0  0  0  0
   61.9110  153.4510  -42.9720 N   0  0  0  0  0  0  0  0  0  0  0  0
   67.4840  152.7140  -49.8830 C   0  0  0  0  0  0  0  0  0  0  0  0
   66.9620  153.4840  -50.8730 C   0  0  0  0  0  0  0  0  0  0  0  0
   65.6300  154.1390  -49.2840 C   0  0  0  0  0  0  0  0  0  0  0  0
   63.8100  154.6200  -47.6130 C   0  0  0  0  0  0  0  0  0  0  0  0
   68.5290  151.6990  -50.1180 C   0  0  0  0  0  0  0  0  0  0  0  0
   68.8830  150.6820  -49.0340 C   0  0  0  0  0  0  0  0  0  0  0  0
   70.1950  150.1600  -49.0060 C   0  0  0  0  0  0  0  0  0  0  0  0
   70.5590  149.1560  -48.0990 C   0  0  0  0  0  0  0  0  0  0  0  0
   69.6080  148.6650  -47.1940 C   0  0  0  0  0  0  0  0  0  0  0  0
   68.3020  149.1390  -47.2220 C   0  0  0  0  0  0  0  0  0  0  0  0
   67.9340  150.1310  -48.1340 C   0  0  0  0  0  0  0  0  0  0  0  0
   63.7950  153.4320  -46.8880 C   0  0  0  0  0  0  0  0  0  0  0  0
   63.0060  153.3040  -45.7470 C   0  0  0  0  0  0  0  0  0  0  0  0
   62.2260  154.3960  -45.3480 C   0  0  0  0  0  0  0  0  0  0  0  0
   62.2200  155.6010  -46.0570 C   0  0  0  0  0  0  0  0  0  0  0  0
   63.0170  155.6860  -47.1960 C   0  0  0  0  0  0  0  0  0  0  0  0
   69.1000  151.6560  -51.1970 O   0  0  0  0  0  0  0  0  0  0  0  0
   60.1120  153.1810  -44.3630 O   0  0  0  0  0  0  0  0  0  0  0  0
   60.7650  155.4060  -43.3250 O   0  0  0  0  0  0  0  0  0  0  0  0
   66.7290  153.1160  -48.3700 S   0  0  0  0  0  0  0  0  0  0  0  0
   61.1000  154.1910  -44.0510 S   0  0  0  0  0  0  0  0  0  0  0  0
   64.0610  155.3470  -49.4480 H   0  0  0  0  0  0  0  0  0  0  0  0
   67.0790  154.1610  -52.7820 H   0  0  0  0  0  0  0  0  0  0  0  0
   68.1380  152.8470  -52.3050 H   0  0  0  0  0  0  0  0  0  0  0  0
   66.4010  148.8250  -46.4650 H   0  0  0  0  0  0  0  0  0  0  0  0
   67.5990  147.6790  -45.9730 H   0  0  0  0  0  0  0  0  0  0  0  0
   61.3220  152.6650  -43.2680 H   0  0  0  0  0  0  0  0  0  0  0  0
   61.3160  154.0520  -42.4060 H   0  0  0  0  0  0  0  0  0  0  0  0
   70.9280  150.5270  -49.7250 H   0  0  0  0  0  0  0  0  0  0  0  0
   71.5640  148.7390  -48.1180 H   0  0  0  0  0  0  0  0  0  0  0  0
   69.8740  147.8740  -46.4970 H   0  0  0  0  0  0  0  0  0  0  0  0
   66.8970  150.4410  -48.1750 H   0  0  0  0  0  0  0  0  0  0  0  0
   64.3550  152.5720  -47.2310 H   0  0  0  0  0  0  0  0  0  0  0  0
   63.0060  152.3530  -45.2080 H   0  0  0  0  0  0  0  0  0  0  0  0
   61.5850  156.4510  -45.7740 H   0  0  0  0  0  0  0  0  0  0  0  0
   62.9930  156.5920  -47.7870 H   0  0  0  0  0  0  0  0  0  0  0  0
  1  8  2  0  0  0  0
  2  9  1  0  0  0  0
  2 27  1  0  0  0  0
  3  7  1  0  0  0  0
  3 28  1  0  0  0  0
  3 29  1  0  0  0  0
  4 30  1  0  0  0  0
  4 31  1  0  0  0  0
  5 32  1  0  0  0  0
  5 33  1  0  0  0  0
  6 25  1  0  0  0  0
  7  1  1  0  0  0  0
  7  6  2  0  0  0  0
  8  2  1  0  0  0  0
  8 25  1  0  0  0  0
  9 21  2  0  0  0  0
  9 17  1  0  0  0  0
 10  6  1  0  0  0  0
 10 11  1  0  0  0  0
 11 12  2  0  0  0  0
 11 16  1  0  0  0  0
 12 13  1  0  0  0  0
 12 34  1  0  0  0  0
 13 14  2  0  0  0  0
 13 35  1  0  0  0  0
 14 36  1  0  0  0  0
 15 14  1  0  0  0  0
 15  4  1  0  0  0  0
 16 15  2  0  0  0  0
 16 37  1  0  0  0  0
 17 18  2  0  0  0  0
 17 38  1  0  0  0  0
 18 19  1  0  0  0  0
 18 39  1  0  0  0  0
 19 26  1  0  0  0  0
 20 19  2  0  0  0  0
 20 40  1  0  0  0  0
 21 20  1  0  0  0  0
 21 41  1  0  0  0  0
 22 10  2  0  0  0  0
 23 26  2  0  0  0  0
 26 24  2  0  0  0  0
 26  5  1  0  0  0  0
M  END
>  <lm5_entropy_jk>
21.154920599914565

>  <number_of_rotatable_bonds>
5

>  <IC50_NM>
70

>  <charge>
0

$$$$
