3RPY
 OpenBabel11252210453D

 31 32  0  0  0  0  0  0  0  0999 V2000
   68.7380  151.9380  -49.9910 C   0  0  0  0  0  0  0  0  0  0  0  0
   65.9360  154.2450  -50.5830 N   0  0  0  0  0  0  0  0  0  0  0  0
   60.1410  153.2290  -44.3360 O   0  0  0  0  0  0  0  0  0  0  0  0
   66.7470  153.1240  -48.3550 S   0  0  0  0  0  0  0  0  0  0  0  0
   67.4330  153.3950  -52.1220 N   0  0  0  0  0  0  0  0  0  0  0  0
   60.8400  155.4480  -43.3150 O   0  0  0  0  0  0  0  0  0  0  0  0
   61.1490  154.2230  -44.0360 S   0  0  0  0  0  0  0  0  0  0  0  0
   64.5200  154.6890  -48.8170 N   0  0  0  0  0  0  0  0  0  0  0  0
   61.9550  153.4710  -42.9600 N   0  0  0  0  0  0  0  0  0  0  0  0
   67.6030  152.8070  -49.8320 C   0  0  0  0  0  0  0  0  0  0  0  0
   67.0320  153.4760  -50.8620 C   0  0  0  0  0  0  0  0  0  0  0  0
   65.6360  154.0950  -49.3090 C   0  0  0  0  0  0  0  0  0  0  0  0
   63.8240  154.5840  -47.6400 C   0  0  0  0  0  0  0  0  0  0  0  0
   63.8040  153.4020  -46.9020 C   0  0  0  0  0  0  0  0  0  0  0  0
   63.0330  153.2960  -45.7460 C   0  0  0  0  0  0  0  0  0  0  0  0
   62.2710  154.4030  -45.3440 C   0  0  0  0  0  0  0  0  0  0  0  0
   62.2790  155.6040  -46.0610 C   0  0  0  0  0  0  0  0  0  0  0  0
   63.0590  155.6670  -47.2150 C   0  0  0  0  0  0  0  0  0  0  0  0
   69.3250  151.7440  -51.0280 O   0  0  0  0  0  0  0  0  0  0  0  0
   69.0910  151.3360  -48.8560 N   0  0  0  0  0  0  0  0  0  0  0  0
   67.1620  154.1100  -52.7870 H   0  0  0  0  0  0  0  0  0  0  0  0
   68.3010  152.8860  -52.2390 H   0  0  0  0  0  0  0  0  0  0  0  0
   64.0510  155.2850  -49.4910 H   0  0  0  0  0  0  0  0  0  0  0  0
   61.3380  152.7040  -43.2480 H   0  0  0  0  0  0  0  0  0  0  0  0
   61.3840  154.0900  -42.3900 H   0  0  0  0  0  0  0  0  0  0  0  0
   64.3500  152.5310  -47.2460 H   0  0  0  0  0  0  0  0  0  0  0  0
   63.0260  152.3500  -45.1980 H   0  0  0  0  0  0  0  0  0  0  0  0
   61.6680  156.4690  -45.7750 H   0  0  0  0  0  0  0  0  0  0  0  0
   63.0400  156.5680  -47.8130 H   0  0  0  0  0  0  0  0  0  0  0  0
   69.8610  150.6880  -48.8780 H   0  0  0  0  0  0  0  0  0  0  0  0
   68.5380  151.5140  -48.0330 H   0  0  0  0  0  0  0  0  0  0  0  0
  1 10  1  0  0  0  0
  1 20  1  0  0  0  0
  2 12  2  0  0  0  0
  3  7  2  0  0  0  0
  5 11  1  0  0  0  0
  5 21  1  0  0  0  0
  5 22  1  0  0  0  0
  7  6  2  0  0  0  0
  7  9  1  0  0  0  0
  8 13  1  0  0  0  0
  8 23  1  0  0  0  0
  9 24  1  0  0  0  0
  9 25  1  0  0  0  0
 10  4  1  0  0  0  0
 11  2  1  0  0  0  0
 11 10  2  0  0  0  0
 12  8  1  0  0  0  0
 12  4  1  0  0  0  0
 13 18  2  0  0  0  0
 13 14  1  0  0  0  0
 14 15  2  0  0  0  0
 14 26  1  0  0  0  0
 15 16  1  0  0  0  0
 15 27  1  0  0  0  0
 16  7  1  0  0  0  0
 17 16  2  0  0  0  0
 17 28  1  0  0  0  0
 18 17  1  0  0  0  0
 18 29  1  0  0  0  0
 19  1  2  0  0  0  0
 20 30  1  0  0  0  0
 20 31  1  0  0  0  0
M  END
>  <lm5_entropy_jk>
19.643205717801273

>  <number_of_rotatable_bonds>
4

>  <IC50_NM>
4800

>  <charge>
0

$$$$
