3KXG
 OpenBabel11252210453D

 15 16  0  0  1  0  0  0  0  0999 V2000
   21.4330    8.3050   20.0860 C   0  0  0  0  0  0  0  0  0  0  0  0
   22.1510    7.1770   20.5290 C   0  0  0  0  0  0  0  0  0  0  0  0
   23.0580    6.5610   19.7320 C   0  0  0  0  0  0  0  0  0  0  0  0
   23.4000    7.0220   18.4580 C   0  0  0  0  0  0  0  0  0  0  0  0
   22.6900    8.1410   17.9670 C   0  0  0  0  0  0  0  0  0  0  0  0
   21.7000    8.7700   18.7710 C   0  0  0  0  0  0  0  0  0  0  0  0
   23.5590    5.4690   20.3990 N   0  0  0  0  0  0  0  0  0  0  0  0
   23.0210    5.3600   21.6810 N   0  0  0  0  0  0  0  0  0  0  0  0
   22.1790    6.3980   21.7540 C   0  0  0  0  0  0  0  0  0  0  0  0
   20.1200    9.1780   21.1850 Br  0  0  0  0  0  0  0  0  0  0  0  0
   20.7030   10.2590   18.0580 Br  0  0  0  0  0  0  0  0  0  0  0  0
   23.0520    8.7770   16.1920 Br  0  0  0  0  0  0  0  0  0  0  0  0
   24.7650    6.1520   17.4160 Br  0  0  0  0  0  0  0  0  0  0  0  0
   21.2190    6.7200   23.3580 Br  0  0  0  0  0  0  0  0  0  0  0  0
   24.2140    4.7840   20.0370 H   0  0  0  0  0  0  0  0  0  0  0  0
  1  2  2  0  0  0  0
  1  6  1  0  0  0  0
  1 10  1  0  0  0  0
  2  3  1  0  0  0  0
  2  9  1  0  0  0  0
  3  4  2  0  0  0  0
  3  7  1  0  0  0  0
  4  5  1  0  0  0  0
  4 13  1  0  0  0  0
  5  6  2  0  0  0  0
  5 12  1  0  0  0  0
  6 11  1  0  0  0  0
  7  8  1  0  0  0  0
  7 15  1  0  0  0  0
  8  9  2  0  0  0  0
  9 14  1  0  0  0  0
M  END
>  <charge>
0

>  <Ki_NM>
48

>  <number_of_rotatable_bonds>
0

>  <lm5_entropy_jk>
7.2278

$$$$
