3KXG
 OpenBabel11252210453D

 15 16  0  0  1  0  0  0  0  0999 V2000
   21.7410    8.0680   19.8120 C   0  0  0  0  0  0  0  0  0  0  0  0
   22.4840    6.9140   20.1230 C   0  0  0  0  0  0  0  0  0  0  0  0
   23.3380    6.3640   19.2260 C   0  0  0  0  0  0  0  0  0  0  0  0
   23.5850    6.9110   17.9650 C   0  0  0  0  0  0  0  0  0  0  0  0
   22.8570    8.0690   17.6070 C   0  0  0  0  0  0  0  0  0  0  0  0
   21.9250    8.6350   18.5220 C   0  0  0  0  0  0  0  0  0  0  0  0
   23.8940    5.2370   19.7830 N   0  0  0  0  0  0  0  0  0  0  0  0
   23.4400    5.0300   21.0850 N   0  0  0  0  0  0  0  0  0  0  0  0
   22.5950    6.0480   21.2840 C   0  0  0  0  0  0  0  0  0  0  0  0
   20.5140    8.8550   21.0650 Br  0  0  0  0  0  0  0  0  0  0  0  0
   20.9120   10.1910   18.0100 Br  0  0  0  0  0  0  0  0  0  0  0  0
   23.1380    8.8720   15.8800 Br  0  0  0  0  0  0  0  0  0  0  0  0
   24.8630    6.1020   16.7800 Br  0  0  0  0  0  0  0  0  0  0  0  0
   21.7170    6.2260   22.9560 Br  0  0  0  0  0  0  0  0  0  0  0  0
   24.5310    4.5870   19.3340 H   0  0  0  0  0  0  0  0  0  0  0  0
  1  2  2  0  0  0  0
  1  6  1  0  0  0  0
  1 10  1  0  0  0  0
  2  3  1  0  0  0  0
  2  9  1  0  0  0  0
  3  4  2  0  0  0  0
  3  7  1  0  0  0  0
  4  5  1  0  0  0  0
  4 13  1  0  0  0  0
  5  6  2  0  0  0  0
  5 12  1  0  0  0  0
  6 11  1  0  0  0  0
  7  8  1  0  0  0  0
  7 15  1  0  0  0  0
  8  9  2  0  0  0  0
  9 14  1  0  0  0  0
M  END
>  <charge>
0

>  <Ki_NM>
48

>  <number_of_rotatable_bonds>
0

>  <lm5_entropy_jk>
7.2278

$$$$
