2IKI
 OpenBabel11252210453D

 35 36  0  0  0  0  0  0  0  0999 V2000
   18.3530   -6.6210   14.3080 C   0  0  0  0  0  0  0  0  0  0  0  0
   17.4770   -7.5090   15.0950 N   0  0  0  0  0  0  0  0  0  0  0  0
   17.6380   -8.8880   15.0290 C   0  0  0  0  0  0  0  0  0  0  0  0
   18.3650   -9.4160   14.1890 O   0  0  0  0  0  0  0  0  0  0  0  0
   17.6500   -5.9550   13.1440 C   0  0  0  0  0  0  0  0  0  0  0  0
   18.3380   -4.9980   12.3700 C   0  0  0  0  0  0  0  0  0  0  0  0
   19.6120   -4.7260   12.6660 F   0  0  0  0  0  0  0  0  0  0  0  0
   17.7640   -4.2950   11.3100 C   0  0  0  0  0  0  0  0  0  0  0  0
   16.4240   -4.5680   11.0320 C   0  0  0  0  0  0  0  0  0  0  0  0
   15.5270   -3.5290    9.6900 Br  0  0  0  0  0  0  0  0  0  0  0  0
   15.7000   -5.5250   11.7390 C   0  0  0  0  0  0  0  0  0  0  0  0
   16.3190   -6.2120   12.7920 C   0  0  0  0  0  0  0  0  0  0  0  0
   16.8540   -9.7060   16.0040 C   0  0  0  0  0  0  0  0  0  0  0  0
   16.4910  -11.0140   15.6740 C   0  0  0  0  0  0  0  0  0  0  0  0
   15.6880  -11.7790   16.5290 C   0  0  0  0  0  0  0  0  0  0  0  0
   15.2350  -11.1890   17.7060 C   0  0  0  0  0  0  0  0  0  0  0  0
   14.1420  -12.0800   18.7200 Cl  0  0  0  0  0  0  0  0  0  0  0  0
   15.6000   -9.9140   18.1120 C   0  0  0  0  0  0  0  0  0  0  0  0
   16.4740   -9.1930   17.2780 C   0  0  0  0  0  0  0  0  0  0  0  0
   17.0830   -8.0290   17.5750 O   0  0  0  0  0  0  0  0  0  0  0  0
   16.7160   -7.2220   18.7300 C   0  0  0  0  0  0  0  0  0  0  0  0
   15.7340   -6.0980   18.2330 C   0  0  0  0  0  0  0  0  0  0  0  0
   15.6150   -5.9430   17.0050 O   0  5  0  0  0  0  0  0  0  0  0  0
   15.1550   -5.4890   19.1500 O   0  0  0  0  0  0  0  0  0  0  0  0
   16.9020   -7.0360   15.8330 H   0  0  0  0  0  0  0  0  0  0  0  0
   16.2960   -7.8380   19.5390 H   0  0  0  0  0  0  0  0  0  0  0  0
   17.7150   -6.8250   19.0160 H   0  0  0  0  0  0  0  0  0  0  0  0
   16.8100  -11.4620   14.7240 H   0  0  0  0  0  0  0  0  0  0  0  0
   18.3160   -3.5360   10.7500 H   0  0  0  0  0  0  0  0  0  0  0  0
   14.6500   -5.7200   11.5010 H   0  0  0  0  0  0  0  0  0  0  0  0
   15.7260   -6.9450   13.3500 H   0  0  0  0  0  0  0  0  0  0  0  0
   15.2330   -9.5110   19.0520 H   0  0  0  0  0  0  0  0  0  0  0  0
   18.7410   -5.8190   15.0000 H   0  0  0  0  0  0  0  0  0  0  0  0
   19.2300   -7.2150   13.9150 H   0  0  0  0  0  0  0  0  0  0  0  0
   15.4150  -12.8020   16.2640 H   0  0  0  0  0  0  0  0  0  0  0  0
  1 33  1  0  0  0  0
  1  2  1  0  0  0  0
  2 25  1  0  0  0  0
  3  2  1  0  0  0  0
  3 13  1  0  0  0  0
  4  3  2  0  0  0  0
  5  1  1  0  0  0  0
  6  7  1  0  0  0  0
  6  5  2  0  0  0  0
  8  6  1  0  0  0  0
  9  8  2  0  0  0  0
  9 11  1  0  0  0  0
 10  9  1  0  0  0  0
 11 12  2  0  0  0  0
 12  5  1  0  0  0  0
 12 31  1  0  0  0  0
 13 19  1  0  0  0  0
 14 13  2  0  0  0  0
 14 15  1  0  0  0  0
 15 16  2  0  0  0  0
 16 18  1  0  0  0  0
 16 17  1  0  0  0  0
 18 32  1  0  0  0  0
 19 20  1  0  0  0  0
 19 18  2  0  0  0  0
 20 21  1  0  0  0  0
 21 27  1  0  0  0  0
 21 26  1  0  0  0  0
 22 21  1  0  0  0  0
 22 24  2  0  0  0  0
 23 22  1  0  0  0  0
 28 14  1  0  0  0  0
 29  8  1  0  0  0  0
 30 11  1  0  0  0  0
 34  1  1  0  0  0  0
 35 15  1  0  0  0  0
M  CHG  1  23  -1
M  END
>  <lm5_entropy_jk>
25.63780735381752

>  <number_of_rotatable_bonds>
7

>  <deltaG_kcalmol>
-10.21

>  <charge>
-1

$$$$
