22d-chB.pdb
 OpenBabel11252210453D

 91 95  0  0  1  0  0  0  0  0999 V2000
    1.8240    2.0810   11.5700 C   0  0  0  0  0  0  0  0  0  0  0  0
    2.3590    0.8330   11.9070 O   0  0  0  0  0  0  0  0  0  0  0  0
    2.6970    3.1260   11.2040 C   0  0  0  0  0  0  0  0  0  0  0  0
    5.3280    0.4980   16.6650 O   0  0  0  0  0  0  0  0  0  0  0  0
    3.7020   -1.5140   13.0600 O   0  0  0  0  0  0  0  0  0  0  0  0
    2.1370    4.2660   10.6080 C   0  0  0  0  0  0  0  0  0  0  0  0
    4.8820    0.1960   14.0180 N   0  0  0  0  0  0  0  0  0  0  0  0
    0.7590    4.3530   10.3950 C   0  0  0  0  0  0  0  0  0  0  0  0
    2.9330   -5.1370   16.9900 C   0  0  0  0  0  0  0  0  0  0  0  0
    5.5520   -3.7490   16.7780 N   0  0  0  0  0  0  0  0  0  0  0  0
   -0.0900    3.3390   10.8360 C   0  0  0  0  0  0  0  0  0  0  0  0
    3.2980   -5.9940   18.0390 C   0  0  0  0  0  0  0  0  0  0  0  0
    5.9850   -4.6430   14.7290 O   0  0  0  0  0  0  0  0  0  0  0  0
    0.4260    2.1940   11.4600 C   0  0  0  0  0  0  0  0  0  0  0  0
    3.1390   -7.3740   17.9000 C   0  0  0  0  0  0  0  0  0  0  0  0
    4.1660    3.0120   11.4220 C   0  0  0  0  0  0  0  0  0  0  0  0
    2.6420   -7.9070   16.7070 C   0  0  0  0  0  0  0  0  0  0  0  0
   -0.4860    1.1430   11.9950 C   0  0  0  0  0  0  0  0  0  0  0  0
    2.2810   -7.0520   15.6610 C   0  0  0  0  0  0  0  0  0  0  0  0
    5.6340  -10.8880   18.4680 C   0  0  0  0  0  0  0  0  0  0  0  0
    2.4160   -5.6700   15.8000 C   0  0  0  0  0  0  0  0  0  0  0  0
    2.5810    0.6450   13.3240 C   0  0  0  0  0  0  0  0  0  0  0  0
    3.7420   -0.3520   13.4290 C   0  0  0  0  0  0  0  0  0  0  0  0
    5.9220   -0.6660   14.6200 C   0  0  1  0  0  0  0  0  0  0  0  0
    4.5000  -11.7700   18.0130 C   0  0  0  0  0  0  0  0  0  0  0  0
    8.1150   -0.1620   10.6880 C   0  0  0  0  0  0  0  0  0  0  0  0
    7.8570    1.1540   10.2910 C   0  0  0  0  0  0  0  0  0  0  0  0
    7.4590    2.0980   11.2420 C   0  0  0  0  0  0  0  0  0  0  0  0
    7.2930    1.7220   12.5770 C   0  0  0  0  0  0  0  0  0  0  0  0
    7.5300    0.3960   12.9750 C   0  0  0  0  0  0  0  0  0  0  0  0
    7.9570   -0.5420   12.0230 C   0  0  0  0  0  0  0  0  0  0  0  0
    7.3070   -0.0050   14.4080 C   0  0  0  0  0  0  0  0  0  0  0  0
    5.6100   -0.8330   16.1410 C   0  0  2  0  0  0  0  0  0  0  0  0
    4.3280   -1.5830   16.5080 C   0  0  0  0  0  0  0  0  0  0  0  0
    4.2870   -3.1050   16.3250 C   0  0  2  0  0  0  0  0  0  0  0  0
    6.2160   -4.6160   15.9300 C   0  0  0  0  0  0  0  0  0  0  0  0
    7.3110   -5.5140   16.5410 C   0  0  1  0  0  0  0  0  0  0  0  0
    7.4420   -5.1980   17.9580 O   0  0  0  0  0  0  0  0  0  0  0  0
    3.0960   -3.6550   17.1510 C   0  0  0  0  0  0  0  0  0  0  0  0
    7.0730   -6.2890   18.7590 C   0  0  0  0  0  0  0  0  0  0  0  0
    7.0450   -6.1730   19.9520 O   0  0  0  0  0  0  0  0  0  0  0  0
    6.7500   -7.3730   17.9240 N   0  0  0  0  0  0  0  0  0  0  0  0
    6.9410   -7.0160   16.4860 C   0  0  0  0  0  0  0  0  0  0  0  0
    6.7430   -8.7380   18.3790 C   0  0  0  0  0  0  0  0  0  0  0  0
    5.7110   -9.5890   17.9510 C   0  0  0  0  0  0  0  0  0  0  0  0
    6.5700  -11.3390   19.4040 C   0  0  0  0  0  0  0  0  0  0  0  0
    7.6090  -10.4900   19.8030 C   0  0  0  0  0  0  0  0  0  0  0  0
    7.7120   -9.1970   19.2900 C   0  0  0  0  0  0  0  0  0  0  0  0
    3.3000  -11.3840   18.4850 F   0  0  0  0  0  0  0  0  0  0  0  0
    4.3180  -11.8230   16.6810 F   0  0  0  0  0  0  0  0  0  0  0  0
    4.5680  -13.0670   18.3600 F   0  0  0  0  0  0  0  0  0  0  0  0
    4.7030    3.9490   11.1380 H   0  0  0  0  0  0  0  0  0  0  0  0
    4.5810    2.1760   10.8050 H   0  0  0  0  0  0  0  0  0  0  0  0
    4.3960    2.7930   12.4910 H   0  0  0  0  0  0  0  0  0  0  0  0
    2.7860    5.0800   10.2710 H   0  0  0  0  0  0  0  0  0  0  0  0
    4.8840    1.1610   14.3990 H   0  0  0  0  0  0  0  0  0  0  0  0
    5.7140   -3.7500   17.8000 H   0  0  0  0  0  0  0  0  0  0  0  0
    4.1630   -1.3580   17.5960 H   0  0  0  0  0  0  0  0  0  0  0  0
    3.6960   -5.5810   18.9670 H   0  0  0  0  0  0  0  0  0  0  0  0
    3.4000   -8.0300   18.7300 H   0  0  0  0  0  0  0  0  0  0  0  0
    2.5300   -8.9870   16.5990 H   0  0  0  0  0  0  0  0  0  0  0  0
    1.8910   -7.4640   14.7360 H   0  0  0  0  0  0  0  0  0  0  0  0
    2.1010   -5.0050   14.9980 H   0  0  0  0  0  0  0  0  0  0  0  0
    2.8390    1.6100   13.8060 H   0  0  0  0  0  0  0  0  0  0  0  0
    5.9210   -1.6760   14.1340 H   0  0  0  0  0  0  0  0  0  0  0  0
    1.6590    0.2000   13.7630 H   0  0  0  0  0  0  0  0  0  0  0  0
    0.3460    5.2130    9.8600 H   0  0  0  0  0  0  0  0  0  0  0  0
   -1.1650    3.4110   10.6790 H   0  0  0  0  0  0  0  0  0  0  0  0
   -1.5090    1.2460   11.5600 H   0  0  0  0  0  0  0  0  0  0  0  0
   -0.5880    1.2740   13.1000 H   0  0  0  0  0  0  0  0  0  0  0  0
   -0.0980    0.1220   11.7730 H   0  0  0  0  0  0  0  0  0  0  0  0
    6.2200    0.8130   17.0710 H   0  0  0  0  0  0  0  0  0  0  0  0
    8.4450   -0.8910    9.9510 H   0  0  0  0  0  0  0  0  0  0  0  0
    7.9650    1.4500    9.2470 H   0  0  0  0  0  0  0  0  0  0  0  0
    7.2780    3.1340   10.9460 H   0  0  0  0  0  0  0  0  0  0  0  0
    6.9740    2.4640   13.3110 H   0  0  0  0  0  0  0  0  0  0  0  0
    8.1760   -1.5620   12.3320 H   0  0  0  0  0  0  0  0  0  0  0  0
    8.1040   -0.7050   14.7590 H   0  0  0  0  0  0  0  0  0  0  0  0
    7.3800    0.9060   15.0610 H   0  0  0  0  0  0  0  0  0  0  0  0
    6.4940   -1.2490   16.6760 H   0  0  0  0  0  0  0  0  0  0  0  0
    3.4680   -1.1490   15.9440 H   0  0  0  0  0  0  0  0  0  0  0  0
    4.1350   -3.3500   15.2380 H   0  0  0  0  0  0  0  0  0  0  0  0
    8.3090   -5.2820   16.0960 H   0  0  0  0  0  0  0  0  0  0  0  0
    3.2560   -3.4120   18.2330 H   0  0  0  0  0  0  0  0  0  0  0  0
    2.1630   -3.1290   16.8340 H   0  0  0  0  0  0  0  0  0  0  0  0
    7.7580   -7.6280   16.0240 H   0  0  0  0  0  0  0  0  0  0  0  0
    5.9770   -7.1980   15.9410 H   0  0  0  0  0  0  0  0  0  0  0  0
    4.9870   -9.2360   17.2090 H   0  0  0  0  0  0  0  0  0  0  0  0
    6.5220  -12.3470   19.8300 H   0  0  0  0  0  0  0  0  0  0  0  0
    8.3530  -10.8490   20.5240 H   0  0  0  0  0  0  0  0  0  0  0  0
    8.5460   -8.5630   19.6020 H   0  0  0  0  0  0  0  0  0  0  0  0
  1  3  1  0  0  0  0
  1  2  1  0  0  0  0
  2 22  1  0  0  0  0
  3 16  1  0  0  0  0
  4 72  1  0  0  0  0
  5 23  2  0  0  0  0
  6 55  1  0  0  0  0
  6  3  2  0  0  0  0
  7 24  1  0  0  0  0
  7 56  1  0  0  0  0
  8  6  1  0  0  0  0
  9 39  1  0  0  0  0
  9 12  1  0  0  0  0
 10 57  1  0  0  0  0
 11  8  2  0  0  0  0
 11 14  1  0  0  0  0
 12 59  1  0  0  0  0
 13 36  2  0  0  0  0
 14  1  2  0  0  0  0
 15 12  2  0  0  0  0
 15 60  1  0  0  0  0
 16 54  1  0  0  0  0
 17 15  1  0  0  0  0
 18 14  1  0  0  0  0
 18 70  1  0  0  0  0
 19 21  1  0  0  0  0
 19 17  2  0  0  0  0
 20 46  1  0  0  0  0
 21  9  2  0  0  0  0
 22 64  1  0  0  0  0
 22 23  1  0  0  0  0
 22 66  1  0  0  0  0
 23  7  1  0  0  0  0
 24 65  1  6  0  0  0
 24 33  1  0  0  0  0
 25 51  1  0  0  0  0
 25 20  1  0  0  0  0
 26 31  1  0  0  0  0
 27 26  2  0  0  0  0
 27 28  1  0  0  0  0
 28 29  2  0  0  0  0
 29 30  1  0  0  0  0
 29 76  1  0  0  0  0
 30 32  1  0  0  0  0
 31 77  1  0  0  0  0
 31 30  2  0  0  0  0
 32 78  1  0  0  0  0
 32 24  1  0  0  0  0
 32 79  1  0  0  0  0
 33 80  1  1  0  0  0
 33  4  1  0  0  0  0
 33 34  1  0  0  0  0
 34 58  1  0  0  0  0
 35 82  1  6  0  0  0
 35 34  1  0  0  0  0
 35 10  1  0  0  0  0
 35 39  1  0  0  0  0
 36 10  1  0  0  0  0
 36 37  1  0  0  0  0
 37 83  1  6  0  0  0
 37 38  1  0  0  0  0
 38 40  1  0  0  0  0
 39 84  1  0  0  0  0
 40 41  2  0  0  0  0
 42 44  1  0  0  0  0
 42 40  1  0  0  0  0
 43 37  1  0  0  0  0
 43 42  1  0  0  0  0
 44 48  2  0  0  0  0
 45 20  2  0  0  0  0
 45 44  1  0  0  0  0
 46 89  1  0  0  0  0
 46 47  2  0  0  0  0
 47 90  1  0  0  0  0
 48 47  1  0  0  0  0
 48 91  1  0  0  0  0
 49 25  1  0  0  0  0
 50 25  1  0  0  0  0
 52 16  1  0  0  0  0
 53 16  1  0  0  0  0
 61 17  1  0  0  0  0
 62 19  1  0  0  0  0
 63 21  1  0  0  0  0
 67  8  1  0  0  0  0
 68 11  1  0  0  0  0
 69 18  1  0  0  0  0
 71 18  1  0  0  0  0
 73 26  1  0  0  0  0
 74 27  1  0  0  0  0
 75 28  1  0  0  0  0
 81 34  1  0  0  0  0
 85 39  1  0  0  0  0
 86 43  1  0  0  0  0
 87 43  1  0  0  0  0
 88 45  1  0  0  0  0
M  END
>  <charge>
0

>  <KI_NM>
21.63

>  <number_of_rotatable_bonds>
17

>  <lm5_entropy_jk>
40.025375123851944

>  <ligand_crystal_conformation>
B

$$$$
