3ljj_new.pdb
 OpenBabel11252210453D

 58 60  0  0  1  0  0  0  0  0999 V2000
    2.2660   20.3520   18.0470 N   0  0  0  0  0  0  0  0  0  0  0  0
    1.1360   21.1010   14.5150 N   0  3  0  0  0  0  0  0  0  0  0  0
    0.8700   17.3800   19.6150 N   0  0  0  0  0  0  0  0  0  0  0  0
   -1.6030   12.4560   14.9330 N   0  3  0  0  0  0  0  0  0  0  0  0
   -2.7220   14.2910   14.0370 N   0  0  0  0  0  0  0  0  0  0  0  0
    2.3860   19.2460   19.0440 C   0  0  1  0  0  0  0  0  0  0  0  0
    3.1140   19.8530   20.2620 C   0  0  0  0  0  0  0  0  0  0  0  0
    3.1580   21.3800   20.0530 C   0  0  0  0  0  0  0  0  0  0  0  0
    2.7460   21.6620   18.5960 C   0  0  0  0  0  0  0  0  0  0  0  0
    0.9740   18.7580   19.4300 C   0  0  0  0  0  0  0  0  0  0  0  0
    1.6610   20.1850   16.8280 C   0  0  0  0  0  0  0  0  0  0  0  0
    1.5750   21.4290   15.9340 C   0  0  0  0  0  0  0  0  0  0  0  0
    2.2990   21.1950   13.4970 C   0  0  0  0  0  0  0  0  0  0  0  0
    2.8610   22.6320   13.3830 C   0  0  0  0  0  0  0  0  0  0  0  0
    3.0980   22.8850   11.8750 C   0  0  0  0  0  0  0  0  0  0  0  0
    2.7600   21.5710   11.1440 C   0  0  0  0  0  0  0  0  0  0  0  0
    1.7930   20.8240   12.0870 C   0  0  0  0  0  0  0  0  0  0  0  0
   -0.4520   16.7400   19.7790 C   0  0  0  0  0  0  0  0  0  0  0  0
   -0.8500   15.9940   18.5260 C   0  0  0  0  0  0  0  0  0  0  0  0
   -1.1540   16.6680   17.3320 C   0  0  0  0  0  0  0  0  0  0  0  0
   -1.5250   15.9560   16.1930 C   0  0  0  0  0  0  0  0  0  0  0  0
   -1.5840   14.5490   16.2270 C   0  0  0  0  0  0  0  0  0  0  0  0
   -1.2910   13.8780   17.4320 C   0  0  0  0  0  0  0  0  0  0  0  0
   -0.9330   14.5930   18.5670 C   0  0  0  0  0  0  0  0  0  0  0  0
   -1.9890   13.7550   15.0520 C   0  0  0  0  0  0  0  0  0  0  0  0
    0.0260   19.4980   19.6260 O   0  0  0  0  0  0  0  0  0  0  0  0
    1.2260   19.0950   16.4490 O   0  0  0  0  0  0  0  0  0  0  0  0
    2.9900   18.4220   18.5790 H   0  0  0  0  0  0  0  0  0  0  0  0
    4.1520   19.4440   20.3210 H   0  0  0  0  0  0  0  0  0  0  0  0
    2.5860   19.6060   21.2130 H   0  0  0  0  0  0  0  0  0  0  0  0
    2.4570   21.8980   20.7530 H   0  0  0  0  0  0  0  0  0  0  0  0
    4.1860   21.7770   20.2400 H   0  0  0  0  0  0  0  0  0  0  0  0
    1.9330   22.4320   18.5390 H   0  0  0  0  0  0  0  0  0  0  0  0
    3.6230   22.0110   17.9860 H   0  0  0  0  0  0  0  0  0  0  0  0
    0.8290   22.1580   16.3830 H   0  0  0  0  0  0  0  0  0  0  0  0
    2.5710   21.9670   15.9020 H   0  0  0  0  0  0  0  0  0  0  0  0
    0.7090   20.1170   14.4900 H   0  0  0  0  0  0  0  0  0  0  0  0
    0.3880   21.8030   14.2410 H   0  0  0  0  0  0  0  0  0  0  0  0
    3.1000   20.4940   13.8440 H   0  0  0  0  0  0  0  0  0  0  0  0
    2.1470   23.3850   13.7900 H   0  0  0  0  0  0  0  0  0  0  0  0
    3.8160   22.7190   13.9510 H   0  0  0  0  0  0  0  0  0  0  0  0
    2.4280   23.7050   11.5260 H   0  0  0  0  0  0  0  0  0  0  0  0
    4.1550   23.1850   11.6980 H   0  0  0  0  0  0  0  0  0  0  0  0
    3.6840   20.9640   10.9950 H   0  0  0  0  0  0  0  0  0  0  0  0
    2.2790   21.7640   10.1600 H   0  0  0  0  0  0  0  0  0  0  0  0
    1.8150   19.7330   11.9120 H   0  0  0  0  0  0  0  0  0  0  0  0
    0.7590   21.2150   11.9280 H   0  0  0  0  0  0  0  0  0  0  0  0
    1.6530   16.7330   19.4200 H   0  0  0  0  0  0  0  0  0  0  0  0
   -0.3810   16.0290   20.6520 H   0  0  0  0  0  0  0  0  0  0  0  0
   -1.2400   17.5170   20.0090 H   0  0  0  0  0  0  0  0  0  0  0  0
   -1.1160   17.7630   17.2810 H   0  0  0  0  0  0  0  0  0  0  0  0
   -1.7700   16.5130   15.2850 H   0  0  0  0  0  0  0  0  0  0  0  0
   -1.3520   12.7910   17.4980 H   0  0  0  0  0  0  0  0  0  0  0  0
   -0.7260   14.0550   19.5000 H   0  0  0  0  0  0  0  0  0  0  0  0
   -2.0580   11.8160   14.2410 H   0  0  0  0  0  0  0  0  0  0  0  0
   -0.9200   12.0280   15.5940 H   0  0  0  0  0  0  0  0  0  0  0  0
   -3.1010   13.6630   13.2820 H   0  0  0  0  0  0  0  0  0  0  0  0
   -3.1140   15.2510   14.0970 H   0  0  0  0  0  0  0  0  0  0  0  0
  1  6  1  0  0  0  0
  1  9  1  0  0  0  0
  1 11  1  0  0  0  0
  2 12  1  0  0  0  0
  2 13  1  0  0  0  0
  2 37  1  0  0  0  0
  2 38  1  0  0  0  0
  3 10  1  0  0  0  0
  3 18  1  0  0  0  0
  3 48  1  0  0  0  0
  4 25  2  0  0  0  0
  4 55  1  0  0  0  0
  4 56  1  0  0  0  0
  5 25  1  0  0  0  0
  5 57  1  0  0  0  0
  5 58  1  0  0  0  0
  6  7  1  0  0  0  0
  6 10  1  0  0  0  0
  6 28  1  6  0  0  0
  7  8  1  0  0  0  0
  7 29  1  0  0  0  0
  7 30  1  0  0  0  0
  8  9  1  0  0  0  0
  8 31  1  0  0  0  0
  8 32  1  0  0  0  0
  9 33  1  0  0  0  0
  9 34  1  0  0  0  0
 10 26  2  0  0  0  0
 11 12  1  0  0  0  0
 11 27  2  0  0  0  0
 12 35  1  0  0  0  0
 12 36  1  0  0  0  0
 13 14  1  0  0  0  0
 13 17  1  0  0  0  0
 13 39  1  0  0  0  0
 14 15  1  0  0  0  0
 14 40  1  0  0  0  0
 14 41  1  0  0  0  0
 15 16  1  0  0  0  0
 15 42  1  0  0  0  0
 15 43  1  0  0  0  0
 16 17  1  0  0  0  0
 16 44  1  0  0  0  0
 16 45  1  0  0  0  0
 17 46  1  0  0  0  0
 17 47  1  0  0  0  0
 18 19  1  0  0  0  0
 18 49  1  0  0  0  0
 18 50  1  0  0  0  0
 19 20  2  0  0  0  0
 19 24  1  0  0  0  0
 20 21  1  0  0  0  0
 20 51  1  0  0  0  0
 21 22  2  0  0  0  0
 21 52  1  0  0  0  0
 22 23  1  0  0  0  0
 22 25  1  0  0  0  0
 23 24  2  0  0  0  0
 23 53  1  0  0  0  0
 24 54  1  0  0  0  0
M  CHG  2   2   1   4   1
M  END
>  <number_of_rotatable_bonds>
9

>  <lm5_entropy_jk>
23.942377463858183

>  <deltaG_kcalmol>
-8.91

>  <charge>
2

$$$$
