2OXY
 OpenBabel11252210453D

 15 16  0  0  1  0  0  0  0  0999 V2000
   21.5620    8.1280   20.1870 C   0  0  0  0  0  0  0  0  0  0  0  0
   21.7960    8.6120   18.8670 C   0  0  0  0  0  0  0  0  0  0  0  0
   22.7340    7.9590   18.0310 C   0  0  0  0  0  0  0  0  0  0  0  0
   22.2330    6.9700   20.6550 C   0  0  0  0  0  0  0  0  0  0  0  0
   23.7770    5.1660   20.0100 N   0  0  0  0  0  0  0  0  0  0  0  0
   23.1050    6.3170   19.7780 C   0  0  0  0  0  0  0  0  0  0  0  0
   23.3530    6.8130   18.5410 C   0  0  0  0  0  0  0  0  0  0  0  0
   24.2350    5.9890   17.9200 N   0  0  0  0  0  0  0  0  0  0  0  0
   24.4400    4.9560   18.8510 C   0  0  0  0  0  0  0  0  0  0  0  0
   20.3190    9.0250   21.3460 Br  0  0  0  0  0  0  0  0  0  0  0  0
   20.8310   10.1400   18.2000 Br  0  0  0  0  0  0  0  0  0  0  0  0
   23.1510    8.6040   16.2690 Br  0  0  0  0  0  0  0  0  0  0  0  0
   21.9650    6.2820   22.4300 Br  0  0  0  0  0  0  0  0  0  0  0  0
   25.0880    4.1050   18.6350 H   0  0  0  0  0  0  0  0  0  0  0  0
   24.6300    6.0820   16.9940 H   0  0  0  0  0  0  0  0  0  0  0  0
  1  2  2  0  0  0  0
  1  4  1  0  0  0  0
  1 10  1  0  0  0  0
  2  3  1  0  0  0  0
  2 11  1  0  0  0  0
  3  7  2  0  0  0  0
  3 12  1  0  0  0  0
  4  6  2  0  0  0  0
  4 13  1  0  0  0  0
  5  6  1  0  0  0  0
  5  9  2  0  0  0  0
  6  7  1  0  0  0  0
  7  8  1  0  0  0  0
  8  9  1  0  0  0  0
  8 15  1  0  0  0  0
  9 14  1  0  0  0  0
M  END
>  <charge>
0

>  <Ki_NM>
300

>  <number_of_rotatable_bonds>
0

>  <lm5_entropy_jk>
7.2278

$$$$
