3RMF
 OpenBabel11252210453D

 45 48  0  0  0  0  0  0  0  0999 V2000
   65.8740  154.4500  -50.6150 N   0  0  0  0  0  0  0  0  0  0  0  0
   64.5380  155.0580  -48.7330 N   0  0  0  0  0  0  0  0  0  0  0  0
   67.4470  153.5010  -52.1670 N   0  0  0  0  0  0  0  0  0  0  0  0
   62.1110  152.9620  -42.8280 N   0  0  0  0  0  0  0  0  0  0  0  0
   67.5210  152.8660  -49.8150 C   0  0  0  0  0  0  0  0  0  0  0  0
   66.9880  153.5990  -50.8980 C   0  0  0  0  0  0  0  0  0  0  0  0
   65.5860  154.3510  -49.3010 C   0  0  0  0  0  0  0  0  0  0  0  0
   63.8140  154.7060  -47.5510 C   0  0  0  0  0  0  0  0  0  0  0  0
   68.4400  151.7660  -49.9030 C   0  0  0  0  0  0  0  0  0  0  0  0
   68.6800  150.9200  -48.6850 C   0  0  0  0  0  0  0  0  0  0  0  0
   69.9810  150.3450  -48.5300 C   0  0  0  0  0  0  0  0  0  0  0  0
   70.2650  149.5530  -47.4470 C   0  0  0  0  0  0  0  0  0  0  0  0
   69.3000  149.3550  -46.4090 C   0  0  0  0  0  0  0  0  0  0  0  0
   68.0130  149.9290  -46.5590 C   0  0  0  0  0  0  0  0  0  0  0  0
   67.7010  150.6480  -47.7570 C   0  0  0  0  0  0  0  0  0  0  0  0
   62.8780  155.6670  -47.1040 C   0  0  0  0  0  0  0  0  0  0  0  0
   62.1210  155.4270  -45.9640 C   0  0  0  0  0  0  0  0  0  0  0  0
   62.2760  154.2300  -45.2500 C   0  0  0  0  0  0  0  0  0  0  0  0
   63.2060  153.2830  -45.6940 C   0  0  0  0  0  0  0  0  0  0  0  0
   63.9600  153.5000  -46.8500 C   0  0  0  0  0  0  0  0  0  0  0  0
   69.6020  148.6190  -45.2190 C   0  0  0  0  0  0  0  0  0  0  0  0
   68.6830  148.5410  -44.2010 C   0  0  0  0  0  0  0  0  0  0  0  0
   67.4070  149.1630  -44.3330 C   0  0  0  0  0  0  0  0  0  0  0  0
   67.0660  149.8130  -45.4920 C   0  0  0  0  0  0  0  0  0  0  0  0
   69.0240  151.5070  -50.9530 O   0  0  0  0  0  0  0  0  0  0  0  0
   60.1080  153.1190  -44.4960 O   0  0  0  0  0  0  0  0  0  0  0  0
   60.8370  155.1030  -43.1940 O   0  0  0  0  0  0  0  0  0  0  0  0
   66.7600  153.3310  -48.3410 S   0  0  0  0  0  0  0  0  0  0  0  0
   61.2180  153.8910  -43.9340 S   0  0  0  0  0  0  0  0  0  0  0  0
   63.9660  155.6560  -49.3870 H   0  0  0  0  0  0  0  0  0  0  0  0
   67.0470  154.0750  -52.9320 H   0  0  0  0  0  0  0  0  0  0  0  0
   68.2390  152.8760  -52.3730 H   0  0  0  0  0  0  0  0  0  0  0  0
   62.1970  151.9300  -43.0540 H   0  0  0  0  0  0  0  0  0  0  0  0
   62.0130  153.1140  -41.8160 H   0  0  0  0  0  0  0  0  0  0  0  0
   70.7340  150.5310  -49.3030 H   0  0  0  0  0  0  0  0  0  0  0  0
   71.2260  149.0490  -47.3540 H   0  0  0  0  0  0  0  0  0  0  0  0
   66.6530  150.9330  -47.8910 H   0  0  0  0  0  0  0  0  0  0  0  0
   62.7290  156.5920  -47.6630 H   0  0  0  0  0  0  0  0  0  0  0  0
   61.4010  156.1940  -45.6510 H   0  0  0  0  0  0  0  0  0  0  0  0
   63.3690  152.3480  -45.1450 H   0  0  0  0  0  0  0  0  0  0  0  0
   64.6310  152.7070  -47.1820 H   0  0  0  0  0  0  0  0  0  0  0  0
   70.5640  148.1120  -45.1430 H   0  0  0  0  0  0  0  0  0  0  0  0
   68.9010  147.9970  -43.2780 H   0  0  0  0  0  0  0  0  0  0  0  0
   66.7050  149.1080  -43.4970 H   0  0  0  0  0  0  0  0  0  0  0  0
   66.0720  150.2590  -45.6070 H   0  0  0  0  0  0  0  0  0  0  0  0
  1  7  2  0  0  0  0
  2  8  1  0  0  0  0
  2 30  1  0  0  0  0
  3  6  1  0  0  0  0
  3 31  1  0  0  0  0
  3 32  1  0  0  0  0
  4 33  1  0  0  0  0
  4 34  1  0  0  0  0
  5 28  1  0  0  0  0
  6  1  1  0  0  0  0
  6  5  2  0  0  0  0
  7  2  1  0  0  0  0
  7 28  1  0  0  0  0
  8 16  2  0  0  0  0
  8 20  1  0  0  0  0
  9  5  1  0  0  0  0
  9 10  1  0  0  0  0
 10 11  2  0  0  0  0
 10 15  1  0  0  0  0
 11 12  1  0  0  0  0
 11 35  1  0  0  0  0
 12 13  2  0  0  0  0
 12 36  1  0  0  0  0
 13 21  1  0  0  0  0
 14 13  1  0  0  0  0
 14 24  1  0  0  0  0
 15 14  2  0  0  0  0
 15 37  1  0  0  0  0
 16 17  1  0  0  0  0
 16 38  1  0  0  0  0
 17 18  2  0  0  0  0
 17 39  1  0  0  0  0
 18 29  1  0  0  0  0
 19 18  1  0  0  0  0
 19 40  1  0  0  0  0
 20 19  2  0  0  0  0
 20 41  1  0  0  0  0
 21 22  2  0  0  0  0
 21 42  1  0  0  0  0
 22 43  1  0  0  0  0
 23 22  1  0  0  0  0
 23 44  1  0  0  0  0
 24 23  2  0  0  0  0
 24 45  1  0  0  0  0
 25  9  2  0  0  0  0
 26 29  2  0  0  0  0
 29 27  2  0  0  0  0
 29  4  1  0  0  0  0
M  END
>  <lm5_entropy_jk>
22.397995528352578

>  <number_of_rotatable_bonds>
5

>  <IC50_NM>
82000

>  <charge>
0

$$$$
