3F19
 OpenBabel11252210453D

 25 25  0  0  0  0  0  0  0  0999 V2000
    5.5510   25.5460    4.5800 C   0  0  0  0  0  0  0  0  0  0  0  0
    7.6930   26.8520    2.1120 N   0  0  0  0  0  0  0  0  0  0  0  0
    8.1830   22.5530    0.6950 O   0  0  0  0  0  0  0  0  0  0  0  0
    7.8880   26.7190    3.8250 S   0  0  0  0  0  0  0  0  0  0  0  0
    4.7810   24.4660    5.0150 C   0  0  0  0  0  0  0  0  0  0  0  0
    8.6560   23.7350    1.3030 N   0  0  0  0  0  0  0  0  0  0  0  0
    6.9690   24.7290    0.1220 O   0  0  0  0  0  0  0  0  0  0  0  0
    6.8950   25.3660    4.2250 C   0  0  0  0  0  0  0  0  0  0  0  0
    9.2740   26.3960    4.1570 O   0  0  0  0  0  0  0  0  0  0  0  0
    5.3830   23.2040    5.0550 C   0  0  0  0  0  0  0  0  0  0  0  0
    7.3460   27.9590    4.3760 O   0  0  0  0  0  0  0  0  0  0  0  0
    7.4490   24.0750    4.2120 C   0  0  0  0  0  0  0  0  0  0  0  0
    8.6580   26.1860    1.2170 C   0  0  0  0  0  0  0  0  0  0  0  0
    6.6880   22.9740    4.6120 C   0  0  0  0  0  0  0  0  0  0  0  0
    8.0000   24.8800    0.7490 C   0  0  0  0  0  0  0  0  0  0  0  0
    4.6800   22.1860    5.5440 F   0  0  0  0  0  0  0  0  0  0  0  0
    5.0800   26.5350    4.5260 H   0  0  0  0  0  0  0  0  0  0  0  0
    7.4100   27.7820    1.7480 H   0  0  0  0  0  0  0  0  0  0  0  0
    8.4010   21.8160    1.4650 H   0  0  0  0  0  0  0  0  0  0  0  0
    3.7360   24.6050    5.3020 H   0  0  0  0  0  0  0  0  0  0  0  0
    9.6990   23.6860    1.3730 H   0  0  0  0  0  0  0  0  0  0  0  0
    8.4840   23.9030    3.8850 H   0  0  0  0  0  0  0  0  0  0  0  0
    8.8950   26.8180    0.3110 H   0  0  0  0  0  0  0  0  0  0  0  0
    9.6480   25.9880    1.7270 H   0  0  0  0  0  0  0  0  0  0  0  0
    7.1140   21.9700    4.5490 H   0  0  0  0  0  0  0  0  0  0  0  0
  1  8  2  0  0  0  0
  1  5  1  0  0  0  0
  1 17  1  0  0  0  0
  2 13  1  0  0  0  0
  2  4  1  0  0  0  0
  2 18  1  0  0  0  0
  3  6  1  0  0  0  0
  3 19  1  0  0  0  0
  4  9  2  0  0  0  0
  4  8  1  0  0  0  0
  4 11  2  0  0  0  0
  5 10  2  0  0  0  0
  5 20  1  0  0  0  0
  6 15  1  0  0  0  0
  6 21  1  0  0  0  0
  7 15  2  0  0  0  0
  8 12  1  0  0  0  0
 10 14  1  0  0  0  0
 10 16  1  0  0  0  0
 12 14  2  0  0  0  0
 12 22  1  0  0  0  0
 13 15  1  0  0  0  0
 13 23  1  0  0  0  0
 13 24  1  0  0  0  0
 14 25  1  0  0  0  0
M  END
>  <lm5_entropy_jk>
20.21647283461167

>  <number_of_rotatable_bonds>
5

>  <deltaG_kcalmol>
-9.81

>  <charge>
0

$$$$
