1M2Q
 OpenBabel11252210453D

 27 29  0  0  1  0  0  0  0  0999 V2000
   21.6660    8.4800   19.4630 N   0  3  0  0  0  0  0  0  0  0  0  0
   25.6900    3.9450   17.5440 C   0  0  0  0  0  0  0  0  0  0  0  0
   24.8600    5.0570   17.6070 C   0  0  0  0  0  0  0  0  0  0  0  0
   24.1110    5.2530   18.7510 C   0  0  0  0  0  0  0  0  0  0  0  0
   24.1610    4.3490   19.8030 C   0  0  0  0  0  0  0  0  0  0  0  0
   24.9760    3.2190   19.7380 C   0  0  0  0  0  0  0  0  0  0  0  0
   25.7530    3.0420   18.5930 C   0  0  0  0  0  0  0  0  0  0  0  0
   23.2120    7.3090   17.9380 C   0  0  0  0  0  0  0  0  0  0  0  0
   23.8920    7.2020   16.7310 C   0  0  0  0  0  0  0  0  0  0  0  0
   24.7250    6.0110   16.5070 C   0  0  0  0  0  0  0  0  0  0  0  0
   23.7590    8.2210   15.7930 C   0  0  0  0  0  0  0  0  0  0  0  0
   22.9200    9.2960   16.0440 C   0  0  0  0  0  0  0  0  0  0  0  0
   22.2130    9.4000   17.2430 C   0  0  0  0  0  0  0  0  0  0  0  0
   22.3820    8.3930   18.1890 C   0  0  0  0  0  0  0  0  0  0  0  0
   26.4530    3.7170   16.4660 O   0  0  0  0  0  0  0  0  0  0  0  0
   20.5850    9.0530   19.4360 O   0  5  0  0  0  0  0  0  0  0  0  0
   22.3130    8.3180   20.4880 O   0  0  0  0  0  0  0  0  0  0  0  0
   23.2990    6.3250   18.8700 O   0  0  0  0  0  0  0  0  0  0  0  0
   25.2720    5.7840   15.4430 O   0  0  0  0  0  0  0  0  0  0  0  0
   24.4000    8.1930   14.6040 O   0  0  0  0  0  0  0  0  0  0  0  0
   22.8060   10.0820   15.3050 H   0  0  0  0  0  0  0  0  0  0  0  0
   21.5560   10.2540   17.4360 H   0  0  0  0  0  0  0  0  0  0  0  0
   26.4020    2.1750   18.5030 H   0  0  0  0  0  0  0  0  0  0  0  0
   23.5410    4.5270   20.6790 H   0  0  0  0  0  0  0  0  0  0  0  0
   25.0010    2.4940   20.5560 H   0  0  0  0  0  0  0  0  0  0  0  0
   26.0870    4.3470   15.8090 H   0  0  0  0  0  0  0  0  0  0  0  0
   24.4230    9.1150   14.2770 H   0  0  0  0  0  0  0  0  0  0  0  0
  2  3  2  0  0  0  0
  2  7  1  0  0  0  0
  2 15  1  0  0  0  0
  3  4  1  0  0  0  0
  3 10  1  0  0  0  0
  4  5  2  0  0  0  0
  4 18  1  0  0  0  0
  5  6  1  0  0  0  0
  5 24  1  0  0  0  0
  6  7  2  0  0  0  0
  6 25  1  0  0  0  0
  7 23  1  0  0  0  0
  8  9  2  0  0  0  0
  8 14  1  0  0  0  0
  9 10  1  0  0  0  0
  9 11  1  0  0  0  0
 10 19  2  0  0  0  0
 11 12  2  0  0  0  0
 11 20  1  0  0  0  0
 12 13  1  0  0  0  0
 12 21  1  0  0  0  0
 13 14  2  0  0  0  0
 13 22  1  0  0  0  0
 14  1  1  0  0  0  0
 15 26  1  0  0  0  0
 16  1  1  0  0  0  0
 17  1  2  0  0  0  0
 18  8  1  0  0  0  0
 20 27  1  0  0  0  0
M  CHG  2   1   1  16  -1
M  END
>  <Ki_NM>
800

>  <charge>
0

>  <number_of_rotatable_bonds>
1

>  <lm5_entropy_jk>
14.133140156892344

$$$$
