3F16
 OpenBabel11252210453D

 33 33  0  0  1  0  0  0  0  0999 V2000
    7.4770   24.1260    4.2990 C   0  0  0  0  0  0  0  0  0  0  0  0
    8.8990   23.9160    0.7730 N   0  0  0  0  0  0  0  0  0  0  0  0
    7.4890   28.0160    4.6660 O   0  0  0  0  0  0  0  0  0  0  0  0
    7.9800   26.7790    4.0750 S   0  0  0  0  0  0  0  0  0  0  0  0
    6.6580   23.0570    4.6440 C   0  0  0  0  0  0  0  0  0  0  0  0
    7.5350   26.7860    2.5040 N   0  0  0  0  0  0  0  0  0  0  0  0
    9.3700   26.3140    4.0940 O   0  0  0  0  0  0  0  0  0  0  0  0
    6.9730   25.4260    4.4680 C   0  0  0  0  0  0  0  0  0  0  0  0
    6.8500   24.7640    0.2830 O   0  0  0  0  0  0  0  0  0  0  0  0
    5.3950   23.2610    5.1820 C   0  0  0  0  0  0  0  0  0  0  0  0
    7.3040   28.0690    0.2070 O   0  0  0  0  0  0  0  0  0  0  0  0
    4.9070   24.5590    5.3260 C   0  0  0  0  0  0  0  0  0  0  0  0
    4.6690   22.1570    5.5770 O   0  0  0  0  0  0  0  0  0  0  0  0
    5.6840   25.6610    4.9650 C   0  0  0  0  0  0  0  0  0  0  0  0
    8.5580   22.6100    0.2550 O   0  0  0  0  0  0  0  0  0  0  0  0
    8.5840   27.4390    0.3290 C   0  0  0  0  0  0  0  0  0  0  0  0
    7.9810   24.9450    0.7420 C   0  0  0  0  0  0  0  0  0  0  0  0
    8.4580   26.2950    1.3820 C   0  0  2  0  0  0  0  0  0  0  0  0
    3.3300   22.2050    6.1420 C   0  0  0  0  0  0  0  0  0  0  0  0
    8.4820   23.9260    3.9080 H   0  0  0  0  0  0  0  0  0  0  0  0
    9.8510   24.0190    1.1370 H   0  0  0  0  0  0  0  0  0  0  0  0
    7.0000   22.0380    4.4930 H   0  0  0  0  0  0  0  0  0  0  0  0
    6.9460   26.0250    2.8580 H   0  0  0  0  0  0  0  0  0  0  0  0
    6.9070   27.9020    1.0960 H   0  0  0  0  0  0  0  0  0  0  0  0
    3.9090   24.7190    5.7120 H   0  0  0  0  0  0  0  0  0  0  0  0
    5.2720   26.6690    5.0850 H   0  0  0  0  0  0  0  0  0  0  0  0
    8.6040   21.9960    1.0510 H   0  0  0  0  0  0  0  0  0  0  0  0
    9.3280   28.1760    0.6730 H   0  0  0  0  0  0  0  0  0  0  0  0
    8.9550   27.0620   -0.6410 H   0  0  0  0  0  0  0  0  0  0  0  0
    9.4830   26.0840    1.7470 H   0  0  0  0  0  0  0  0  0  0  0  0
    2.9710   21.1890    6.3620 H   0  0  0  0  0  0  0  0  0  0  0  0
    2.6200   22.6620    5.4370 H   0  0  0  0  0  0  0  0  0  0  0  0
    3.3140   22.7750    7.0810 H   0  0  0  0  0  0  0  0  0  0  0  0
  1  8  2  0  0  0  0
  1  5  1  0  0  0  0
  1 20  1  0  0  0  0
  2 15  1  0  0  0  0
  2 17  1  0  0  0  0
  2 21  1  0  0  0  0
  3  4  2  0  0  0  0
  4  6  1  0  0  0  0
  4  7  2  0  0  0  0
  4  8  1  0  0  0  0
  5 10  2  0  0  0  0
  5 22  1  0  0  0  0
  6 18  1  0  0  0  0
  6 23  1  0  0  0  0
  8 14  1  0  0  0  0
  9 17  2  0  0  0  0
 10 12  1  0  0  0  0
 10 13  1  0  0  0  0
 11 16  1  0  0  0  0
 11 24  1  0  0  0  0
 12 14  2  0  0  0  0
 12 25  1  0  0  0  0
 13 19  1  0  0  0  0
 14 26  1  0  0  0  0
 15 27  1  0  0  0  0
 16 18  1  0  0  0  0
 16 28  1  0  0  0  0
 16 29  1  0  0  0  0
 17 18  1  0  0  0  0
 18 30  1  1  0  0  0
 19 31  1  0  0  0  0
 19 32  1  0  0  0  0
 19 33  1  0  0  0  0
M  END
>  <COMPND>
3f16.pdb

>  <AUTHOR>
GENERATED BY OPEN BABEL 2.3.1

>  <MASTER>
0    0    0    0    0    0    0    0   33    0   33    0

>  <lm5_entropy_jk>
30.537322729053685

>  <number_of_rotatable_bonds>
7

>  <deltaG_kcalmol>
-11.24

>  <charge>
0

$$$$
