4LB4
 OpenBabel11252210453D

 35 36  0  0  0  0  0  0  0  0999 V2000
   14.3020  -11.9330   19.1740 Cl  0  0  0  0  0  0  0  0  0  0  0  0
   17.8150   -5.9280   13.2530 C   0  0  0  0  0  0  0  0  0  0  0  0
   16.4410   -6.0610   12.9220 C   0  0  0  0  0  0  0  0  0  0  0  0
   18.5830   -5.0010   12.5190 C   0  0  0  0  0  0  0  0  0  0  0  0
   15.8810   -5.3080   11.8720 C   0  0  0  0  0  0  0  0  0  0  0  0
   18.0230   -4.2590   11.4650 C   0  0  0  0  0  0  0  0  0  0  0  0
   16.6690   -4.4120   11.1320 C   0  0  0  0  0  0  0  0  0  0  0  0
   18.5390   -6.7380   14.3490 C   0  0  0  0  0  0  0  0  0  0  0  0
   17.6880   -7.6110   15.1830 N   0  0  0  0  0  0  0  0  0  0  0  0
   17.6470   -8.9810   15.1250 C   0  0  0  0  0  0  0  0  0  0  0  0
   16.7970   -9.6710   16.1370 C   0  0  0  0  0  0  0  0  0  0  0  0
   16.4230   -9.0540   17.3410 C   0  0  0  0  0  0  0  0  0  0  0  0
   16.3820  -10.9890   15.8690 C   0  0  0  0  0  0  0  0  0  0  0  0
   15.5820   -9.7290   18.2310 C   0  0  0  0  0  0  0  0  0  0  0  0
   15.5880  -11.6710   16.7990 C   0  0  0  0  0  0  0  0  0  0  0  0
   15.1900  -11.0390   17.9730 C   0  0  0  0  0  0  0  0  0  0  0  0
   18.2590   -9.6110   14.2810 O   0  0  0  0  0  0  0  0  0  0  0  0
   16.9990   -7.8460   17.6880 O   0  0  0  0  0  0  0  0  0  0  0  0
   16.6500   -6.9730   18.8080 C   0  0  0  0  0  0  0  0  0  0  0  0
   15.5560   -5.9590   18.5260 C   0  0  0  0  0  0  0  0  0  0  0  0
   15.0080   -5.4870   19.5080 O   0  0  0  0  0  0  0  0  0  0  0  0
   15.2050   -5.7500   17.3810 O   0  5  0  0  0  0  0  0  0  0  0  0
   15.8790   -3.3460    9.7510 Br  0  0  0  0  0  0  0  0  0  0  0  0
   15.6350   -6.8980   13.6040 F   0  0  0  0  0  0  0  0  0  0  0  0
   14.5700   -5.4430   11.5760 F   0  0  0  0  0  0  0  0  0  0  0  0
   18.7940   -3.3900   10.7770 F   0  0  0  0  0  0  0  0  0  0  0  0
   19.8800   -4.8190   12.8400 F   0  0  0  0  0  0  0  0  0  0  0  0
   17.5150   -6.3710   19.0880 H   0  0  0  0  0  0  0  0  0  0  0  0
   19.0740   -6.0350   15.0040 H   0  0  0  0  0  0  0  0  0  0  0  0
   17.1690   -7.2270   15.9710 H   0  0  0  0  0  0  0  0  0  0  0  0
   16.6810  -11.4870   14.9440 H   0  0  0  0  0  0  0  0  0  0  0  0
   15.2920   -9.2700   19.1620 H   0  0  0  0  0  0  0  0  0  0  0  0
   15.2880  -12.7010   16.6110 H   0  0  0  0  0  0  0  0  0  0  0  0
   16.3510   -7.5240   19.6980 H   0  0  0  0  0  0  0  0  0  0  0  0
   19.3210   -7.3580   13.8850 H   0  0  0  0  0  0  0  0  0  0  0  0
  1 16  1  0  0  0  0
  2  3  2  0  0  0  0
  2  4  1  0  0  0  0
  2  8  1  0  0  0  0
  3  5  1  0  0  0  0
  3 24  1  0  0  0  0
  4  6  2  0  0  0  0
  4 27  1  0  0  0  0
  5  7  2  0  0  0  0
  5 25  1  0  0  0  0
  6  7  1  0  0  0  0
  6 26  1  0  0  0  0
  7 23  1  0  0  0  0
  8  9  1  0  0  0  0
  8 29  1  0  0  0  0
  8 35  1  0  0  0  0
  9 10  1  0  0  0  0
  9 30  1  0  0  0  0
 10 11  1  0  0  0  0
 10 17  2  0  0  0  0
 11 12  2  0  0  0  0
 11 13  1  0  0  0  0
 12 14  1  0  0  0  0
 12 18  1  0  0  0  0
 13 15  2  0  0  0  0
 13 31  1  0  0  0  0
 14 16  2  0  0  0  0
 14 32  1  0  0  0  0
 15 16  1  0  0  0  0
 15 33  1  0  0  0  0
 18 19  1  0  0  0  0
 19 20  1  0  0  0  0
 19 28  1  0  0  0  0
 19 34  1  0  0  0  0
 20 21  2  0  0  0  0
 20 22  1  0  0  0  0
M  CHG  1  22  -1
M  END
>  <deltaG_kcalmol>
-10.46

>  <charge>
-1

>  <lm5_entropy_jk>
25.63780735381752

>  <number_of_rotatable_bonds>
7

$$$$
