1J91
 OpenBabel11252210453D

 14 15  0  0  1  0  0  0  0  0999 V2000
   22.8540    7.7130   18.4760 C   0  0  0  0  0  0  0  0  0  0  0  0
   24.4080    7.7660   14.1870 N   0  0  0  0  0  0  0  0  0  0  0  0
   23.5790    6.4870   18.4590 C   0  0  0  0  0  0  0  0  0  0  0  0
   24.2780    6.0840   17.2920 C   0  0  0  0  0  0  0  0  0  0  0  0
   22.8460    8.5500   17.3340 C   0  0  0  0  0  0  0  0  0  0  0  0
   23.6930    8.6470   14.9830 N   0  0  0  0  0  0  0  0  0  0  0  0
   23.5480    8.0940   16.2120 C   0  0  0  0  0  0  0  0  0  0  0  0
   24.2020    6.9160   16.1680 C   0  0  0  0  0  0  0  0  0  0  0  0
   24.7110    6.6950   14.9330 N   0  0  0  0  0  0  0  0  0  0  0  0
   21.8800   10.2100   17.3060 Br  0  0  0  0  0  0  0  0  0  0  0  0
   21.8580    8.2210   20.0440 Br  0  0  0  0  0  0  0  0  0  0  0  0
   23.5470    5.3270   19.9970 Br  0  0  0  0  0  0  0  0  0  0  0  0
   25.2780    4.4460   17.2200 Br  0  0  0  0  0  0  0  0  0  0  0  0
   23.4900    9.5910   14.6740 H   0  0  0  0  0  0  0  0  0  0  0  0
  1  3  2  0  0  0  0
  1  5  1  0  0  0  0
  1 11  1  0  0  0  0
  3  4  1  0  0  0  0
  3 12  1  0  0  0  0
  4  8  2  0  0  0  0
  4 13  1  0  0  0  0
  5  7  2  0  0  0  0
  5 10  1  0  0  0  0
  6  2  1  0  0  0  0
  6  7  1  0  0  0  0
  6 14  1  0  0  0  0
  7  8  1  0  0  0  0
  8  9  1  0  0  0  0
  9  2  2  0  0  0  0
M  END
>  <charge>
0

>  <Ki_NM>
400

>  <number_of_rotatable_bonds>
0

>  <lm5_entropy_jk>
7.2278

$$$$
