1J91
 OpenBabel11252210453D

 14 15  0  0  1  0  0  0  0  0999 V2000
   22.1140    8.0520   19.4780 C   0  0  0  0  0  0  0  0  0  0  0  0
   24.6520    7.2490   15.7750 N   0  0  0  0  0  0  0  0  0  0  0  0
   22.7020    6.8070   19.8460 C   0  0  0  0  0  0  0  0  0  0  0  0
   23.5940    6.1440   18.9640 C   0  0  0  0  0  0  0  0  0  0  0  0
   22.4370    8.6480   18.2340 C   0  0  0  0  0  0  0  0  0  0  0  0
   23.8250    8.2770   16.1990 N   0  0  0  0  0  0  0  0  0  0  0  0
   23.3590    7.9700   17.4320 C   0  0  0  0  0  0  0  0  0  0  0  0
   23.9070    6.7810   17.7550 C   0  0  0  0  0  0  0  0  0  0  0  0
   24.6960    6.3290   16.7490 N   0  0  0  0  0  0  0  0  0  0  0  0
   21.6390   10.2930   17.6430 Br  0  0  0  0  0  0  0  0  0  0  0  0
   20.8470    8.9040   20.6520 Br  0  0  0  0  0  0  0  0  0  0  0  0
   22.2720    6.0010   21.5400 Br  0  0  0  0  0  0  0  0  0  0  0  0
   24.2600    4.3790   19.3420 Br  0  0  0  0  0  0  0  0  0  0  0  0
   23.6830    9.1180   15.6500 H   0  0  0  0  0  0  0  0  0  0  0  0
  1  3  2  0  0  0  0
  1  5  1  0  0  0  0
  1 11  1  0  0  0  0
  3  4  1  0  0  0  0
  3 12  1  0  0  0  0
  4  8  2  0  0  0  0
  4 13  1  0  0  0  0
  5  7  2  0  0  0  0
  5 10  1  0  0  0  0
  6  2  1  0  0  0  0
  6  7  1  0  0  0  0
  6 14  1  0  0  0  0
  7  8  1  0  0  0  0
  8  9  1  0  0  0  0
  9  2  2  0  0  0  0
M  END
>  <charge>
0

>  <Ki_NM>
400

>  <number_of_rotatable_bonds>
0

>  <lm5_entropy_jk>
7.2278

$$$$
