5NYA
 OpenBabel11252210453D

 16 16  0  0  0  0  0  0  0  0999 V2000
   -5.0340    3.8940   15.6670 C   0  0  0  0  0  0  0  0  0  0  0  0
   -5.3670    1.0340   15.8820 N   0  5  0  0  0  0  0  0  0  0  0  0
   -4.9220    2.6380   17.9160 O   0  0  0  0  0  0  0  0  0  0  0  0
   -3.7710    3.9010   15.0790 C   0  0  0  0  0  0  0  0  0  0  0  0
   -7.0740    2.5980   16.5430 O   0  0  0  0  0  0  0  0  0  0  0  0
   -3.3410    5.0110   14.3390 C   0  0  0  0  0  0  0  0  0  0  0  0
   -4.1790    6.1180   14.1850 C   0  0  0  0  0  0  0  0  0  0  0  0
   -5.4460    6.1140   14.7780 C   0  0  0  0  0  0  0  0  0  0  0  0
   -5.8660    5.0070   15.5250 C   0  0  0  0  0  0  0  0  0  0  0  0
   -5.6030    2.5040   16.6220 S   0  0  0  0  0  0  0  0  0  0  0  0
   -3.0900    3.0530   15.1710 H   0  0  0  0  0  0  0  0  0  0  0  0
   -2.3500    5.0200   13.8820 H   0  0  0  0  0  0  0  0  0  0  0  0
   -3.8440    6.9840   13.6110 H   0  0  0  0  0  0  0  0  0  0  0  0
   -6.0900    6.9850   14.6620 H   0  0  0  0  0  0  0  0  0  0  0  0
   -6.8540    5.0490   15.9980 H   0  0  0  0  0  0  0  0  0  0  0  0
   -4.4090    0.6570   16.2140 H   0  0  0  0  0  0  0  0  0  0  0  0
  1  4  2  0  0  0  0
  1  9  1  0  0  0  0
  1 10  1  0  0  0  0
  2 10  1  0  0  0  0
  3 10  2  0  0  0  0
  4  6  1  0  0  0  0
  5 10  2  0  0  0  0
  6  7  2  0  0  0  0
  7  8  1  0  0  0  0
  8  9  2  0  0  0  0
 11  4  1  0  0  0  0
 12  6  1  0  0  0  0
 13  7  1  0  0  0  0
 14  8  1  0  0  0  0
 15  9  1  0  0  0  0
 16  2  1  0  0  0  0
M  CHG  1   2  -1
M  END
>  <deltaG_kcalmol>
-8.7

>  <number_of_rotatable_bonds>
1

>  <charge>
-1

>  <lm5_entropy_jk>
14.133140156892344

$$$$
