4LAU
 OpenBabel11252210453D

 35 36  0  0  0  0  0  0  0  0999 V2000
   14.1680  -11.8750   18.6750 Cl  0  0  0  0  0  0  0  0  0  0  0  0
   18.6150   -4.8900   12.5520 C   0  0  0  0  0  0  0  0  0  0  0  0
   18.1510   -6.1120   13.0630 C   0  0  0  0  0  0  0  0  0  0  0  0
   16.9940   -6.6890   12.5130 C   0  0  0  0  0  0  0  0  0  0  0  0
   17.9060   -4.2230   11.5470 C   0  0  0  0  0  0  0  0  0  0  0  0
   16.2590   -6.0190   11.5310 C   0  0  0  0  0  0  0  0  0  0  0  0
   16.7140   -4.7770   11.0840 C   0  0  0  0  0  0  0  0  0  0  0  0
   18.9070   -6.7740   14.2000 C   0  0  0  0  0  0  0  0  0  0  0  0
   18.0270   -7.5340   15.1100 N   0  0  0  0  0  0  0  0  0  0  0  0
   17.8790   -8.9120   14.9960 C   0  0  0  0  0  0  0  0  0  0  0  0
   18.4200   -9.5270   14.0750 O   0  0  0  0  0  0  0  0  0  0  0  0
   16.5530   -9.0310   17.2080 C   0  0  0  0  0  0  0  0  0  0  0  0
   17.0320   -9.6150   16.0010 C   0  0  0  0  0  0  0  0  0  0  0  0
   16.6940  -10.9510   15.7300 C   0  0  0  0  0  0  0  0  0  0  0  0
   15.6440   -9.7290   18.0330 C   0  0  0  0  0  0  0  0  0  0  0  0
   15.8460  -11.6760   16.5700 C   0  0  0  0  0  0  0  0  0  0  0  0
   15.3150  -11.0270   17.6840 C   0  0  0  0  0  0  0  0  0  0  0  0
   17.0720   -7.8210   17.4810 O   0  0  0  0  0  0  0  0  0  0  0  0
   16.7190   -7.0630   18.6810 C   0  0  0  0  0  0  0  0  0  0  0  0
   15.6110   -6.0010   18.3170 C   0  0  0  0  0  0  0  0  0  0  0  0
   15.1060   -5.4480   19.3140 O   0  0  0  0  0  0  0  0  0  0  0  0
   15.3250   -5.8280   17.1260 O   0  5  0  0  0  0  0  0  0  0  0  0
   15.6200   -3.7600    9.8700 Br  0  0  0  0  0  0  0  0  0  0  0  0
   17.7070   -6.6040   18.9050 H   0  0  0  0  0  0  0  0  0  0  0  0
   19.5060   -4.4200   12.9670 H   0  0  0  0  0  0  0  0  0  0  0  0
   16.6550   -7.6690   12.8550 H   0  0  0  0  0  0  0  0  0  0  0  0
   18.2660   -3.2620   11.1700 H   0  0  0  0  0  0  0  0  0  0  0  0
   15.3350   -6.4560   11.1410 H   0  0  0  0  0  0  0  0  0  0  0  0
   19.4340   -5.9890   14.8140 H   0  0  0  0  0  0  0  0  0  0  0  0
   17.5720   -6.9840   15.8480 H   0  0  0  0  0  0  0  0  0  0  0  0
   17.0840  -11.4450   14.8300 H   0  0  0  0  0  0  0  0  0  0  0  0
   15.2240   -9.2840   18.9340 H   0  0  0  0  0  0  0  0  0  0  0  0
   15.6000  -12.7150   16.3460 H   0  0  0  0  0  0  0  0  0  0  0  0
   16.4140   -7.7350   19.4980 H   0  0  0  0  0  0  0  0  0  0  0  0
   19.6930   -7.4650   13.7830 H   0  0  0  0  0  0  0  0  0  0  0  0
  1 17  1  0  0  0  0
  2  3  2  0  0  0  0
  2  5  1  0  0  0  0
  2 25  1  0  0  0  0
  3  4  1  0  0  0  0
  3  8  1  0  0  0  0
  4  6  2  0  0  0  0
  4 26  1  0  0  0  0
  5  7  2  0  0  0  0
  5 27  1  0  0  0  0
  6  7  1  0  0  0  0
  6 28  1  0  0  0  0
  7 23  1  0  0  0  0
  8  9  1  0  0  0  0
  8 29  1  0  0  0  0
  8 35  1  0  0  0  0
  9 10  1  0  0  0  0
  9 30  1  0  0  0  0
 10 11  2  0  0  0  0
 10 13  1  0  0  0  0
 12 13  2  0  0  0  0
 12 15  1  0  0  0  0
 12 18  1  0  0  0  0
 13 14  1  0  0  0  0
 14 16  2  0  0  0  0
 14 31  1  0  0  0  0
 15 17  2  0  0  0  0
 15 32  1  0  0  0  0
 16 17  1  0  0  0  0
 16 33  1  0  0  0  0
 18 19  1  0  0  0  0
 19 20  1  0  0  0  0
 19 24  1  0  0  0  0
 19 34  1  0  0  0  0
 20 21  2  0  0  0  0
 20 22  1  0  0  0  0
M  CHG  1  22  -1
M  END
>  <deltaG_kcalmol>
-9.95

>  <charge>
-1

>  <lm5_entropy_jk>
25.63780735381752

>  <number_of_rotatable_bonds>
7

$$$$
