3N2U
 OpenBabel11252210453D

 57 58  0  0  1  0  0  0  0  0999 V2000
    7.8230   28.8200   -2.0770 C   0  0  1  0  0  0  0  0  0  0  0  0
    9.1410   23.6870   -0.1100 N   0  0  0  0  0  0  0  0  0  0  0  0
    6.9880   24.4250    0.1660 O   0  0  0  0  0  0  0  0  0  0  0  0
    8.0630   26.3810    3.7330 S   0  0  0  0  0  0  0  0  0  0  0  0
    8.3760   28.1030   -3.3400 C   0  0  2  0  0  0  0  0  0  0  0  0
    8.0420   26.6320    2.0160 N   0  0  0  0  0  0  0  0  0  0  0  0
    9.4320   25.9570    4.0670 O   0  0  0  0  0  0  0  0  0  0  0  0
    8.2010   24.5780    0.3580 C   0  0  0  0  0  0  0  0  0  0  0  0
    7.5030   27.5960    4.3270 O   0  0  0  0  0  0  0  0  0  0  0  0
    4.7110   30.4760   -3.4640 C   0  0  0  0  0  0  0  0  0  0  0  0
    9.7650   27.7370   -3.1990 O   0  0  0  0  0  0  0  0  0  0  0  0
    6.2340   30.1450   -3.3980 C   0  0  2  0  0  0  0  0  0  0  0  0
    8.6000   28.3010   -5.7670 O   0  0  0  0  0  0  0  0  0  0  0  0
    6.7710   29.5390   -4.7310 C   0  0  1  0  0  0  0  0  0  0  0  0
    6.7060   30.5030   -5.8030 O   0  0  0  0  0  0  0  0  0  0  0  0
    8.2300   29.0230   -4.5820 C   0  0  1  0  0  0  0  0  0  0  0  0
    4.5480   22.0540    5.5600 O   0  0  0  0  0  0  0  0  0  0  0  0
    7.8670   28.5750    0.3360 C   0  0  0  0  0  0  0  0  0  0  0  0
    6.4420   29.1770   -2.3350 O   0  0  0  0  0  0  0  0  0  0  0  0
    7.1570   27.6830    1.3780 C   0  0  0  0  0  0  0  0  0  0  0  0
    3.9110   29.3510   -3.9050 O   0  0  0  0  0  0  0  0  0  0  0  0
    8.8720   25.7790    1.0530 C   0  0  0  0  0  0  0  0  0  0  0  0
    7.8160   27.9090   -0.9530 O   0  0  0  0  0  0  0  0  0  0  0  0
    6.6140   22.7770    4.6470 C   0  0  0  0  0  0  0  0  0  0  0  0
    8.8060   22.4850   -0.8430 O   0  0  0  0  0  0  0  0  0  0  0  0
    6.9540   25.0620    4.0440 C   0  0  0  0  0  0  0  0  0  0  0  0
    5.6130   25.3590    4.2930 C   0  0  0  0  0  0  0  0  0  0  0  0
    7.4670   23.7670    4.1640 C   0  0  0  0  0  0  0  0  0  0  0  0
    4.7870   24.3380    4.7660 C   0  0  0  0  0  0  0  0  0  0  0  0
    5.2990   23.0600    4.9850 C   0  0  0  0  0  0  0  0  0  0  0  0
    3.1720   22.1880    6.0110 C   0  0  0  0  0  0  0  0  0  0  0  0
    8.4390   29.7060   -1.8560 H   0  0  0  0  0  0  0  0  0  0  0  0
   10.1310   23.8750    0.0220 H   0  0  0  0  0  0  0  0  0  0  0  0
    7.7460   27.2150   -3.4860 H   0  0  0  0  0  0  0  0  0  0  0  0
    4.3900   30.8190   -2.4680 H   0  0  0  0  0  0  0  0  0  0  0  0
    4.5790   31.3370   -4.1410 H   0  0  0  0  0  0  0  0  0  0  0  0
   10.0880   27.5960   -4.1150 H   0  0  0  0  0  0  0  0  0  0  0  0
    6.7800   31.0770   -3.1690 H   0  0  0  0  0  0  0  0  0  0  0  0
    8.1960   28.7920   -6.5160 H   0  0  0  0  0  0  0  0  0  0  0  0
    6.1280   28.6720   -4.9560 H   0  0  0  0  0  0  0  0  0  0  0  0
    7.1800   31.3160   -5.5320 H   0  0  0  0  0  0  0  0  0  0  0  0
    8.8900   29.8950   -4.4380 H   0  0  0  0  0  0  0  0  0  0  0  0
    7.3300   29.5370    0.2900 H   0  0  0  0  0  0  0  0  0  0  0  0
    8.9000   28.7880    0.6500 H   0  0  0  0  0  0  0  0  0  0  0  0
    6.2780   27.2360    0.8940 H   0  0  0  0  0  0  0  0  0  0  0  0
    6.7490   28.3660    2.1430 H   0  0  0  0  0  0  0  0  0  0  0  0
    3.1370   29.7050   -4.3960 H   0  0  0  0  0  0  0  0  0  0  0  0
    9.2730   26.3850    0.2270 H   0  0  0  0  0  0  0  0  0  0  0  0
    9.7580   25.3800    1.5760 H   0  0  0  0  0  0  0  0  0  0  0  0
    6.9730   21.7620    4.7670 H   0  0  0  0  0  0  0  0  0  0  0  0
    8.8920   21.7370   -0.1800 H   0  0  0  0  0  0  0  0  0  0  0  0
    5.2110   26.3660    4.1610 H   0  0  0  0  0  0  0  0  0  0  0  0
    8.5110   23.5240    3.9320 H   0  0  0  0  0  0  0  0  0  0  0  0
    3.7470   24.5470    4.9770 H   0  0  0  0  0  0  0  0  0  0  0  0
    2.8030   21.2230    6.3900 H   0  0  0  0  0  0  0  0  0  0  0  0
    2.5110   22.4950    5.1870 H   0  0  0  0  0  0  0  0  0  0  0  0
    3.0900   22.9190    6.8260 H   0  0  0  0  0  0  0  0  0  0  0  0
  1  5  1  0  0  0  0
  1 19  1  0  0  0  0
  1 23  1  0  0  0  0
  1 32  1  1  0  0  0
  2 25  1  0  0  0  0
  2  8  1  0  0  0  0
  2 33  1  0  0  0  0
  3  8  2  0  0  0  0
  4  6  1  0  0  0  0
  4  7  2  0  0  0  0
  4 26  1  0  0  0  0
  4  9  2  0  0  0  0
  5 16  1  0  0  0  0
  5 11  1  0  0  0  0
  5 34  1  6  0  0  0
  6 22  1  0  0  0  0
  6 20  1  0  0  0  0
  8 22  1  0  0  0  0
 10 21  1  0  0  0  0
 10 12  1  0  0  0  0
 10 35  1  0  0  0  0
 10 36  1  0  0  0  0
 11 37  1  0  0  0  0
 12 14  1  0  0  0  0
 12 19  1  0  0  0  0
 12 38  1  1  0  0  0
 13 16  1  0  0  0  0
 13 39  1  0  0  0  0
 14 15  1  0  0  0  0
 14 16  1  0  0  0  0
 14 40  1  6  0  0  0
 15 41  1  0  0  0  0
 16 42  1  1  0  0  0
 17 30  1  0  0  0  0
 17 31  1  0  0  0  0
 18 23  1  0  0  0  0
 18 20  1  0  0  0  0
 18 43  1  0  0  0  0
 18 44  1  0  0  0  0
 20 45  1  0  0  0  0
 20 46  1  0  0  0  0
 21 47  1  0  0  0  0
 22 48  1  0  0  0  0
 22 49  1  0  0  0  0
 24 28  2  0  0  0  0
 24 30  1  0  0  0  0
 24 50  1  0  0  0  0
 25 51  1  0  0  0  0
 26 28  1  0  0  0  0
 26 27  2  0  0  0  0
 27 29  1  0  0  0  0
 27 52  1  0  0  0  0
 28 53  1  0  0  0  0
 29 30  2  0  0  0  0
 29 54  1  0  0  0  0
 31 55  1  0  0  0  0
 31 56  1  0  0  0  0
 31 57  1  0  0  0  0
M  END
>  <lm5_entropy_jk>
36.459690472520535

>  <number_of_rotatable_bonds>
11

>  <deltaG_kcalmol>
-10.71

>  <charge>
0

$$$$
