1T3R
 OpenBabel11252210453D

 75 78  0  0  1  0  0  0  0  0999 V2000
    0.7450    4.2210   10.4420 N   0  0  0  0  0  0  0  0  0  0  0  0
    1.2950    3.1530   11.0660 C   0  0  0  0  0  0  0  0  0  0  0  0
    2.5250    2.7270   10.6310 C   0  0  0  0  0  0  0  0  0  0  0  0
    3.1010    1.5890   11.1650 C   0  0  0  0  0  0  0  0  0  0  0  0
    2.4350    0.9280   12.1840 C   0  0  0  0  0  0  0  0  0  0  0  0
    1.2070    1.3540   12.6780 C   0  0  0  0  0  0  0  0  0  0  0  0
    0.6420    2.4880   12.0960 C   0  0  0  0  0  0  0  0  0  0  0  0
    3.1280   -0.5590   12.7720 S   0  0  0  0  0  0  0  0  0  0  0  0
    3.7300   -1.3330   11.6900 O   0  0  0  0  0  0  0  0  0  0  0  0
    2.1860   -1.1700   13.7030 O   0  0  0  0  0  0  0  0  0  0  0  0
    4.5020   -0.0430   13.6750 N   0  0  0  0  0  0  0  0  0  0  0  0
    5.5010    0.8810   13.0060 C   0  0  0  0  0  0  0  0  0  0  0  0
    6.9440    0.7460   13.4890 C   0  0  0  0  0  0  0  0  0  0  0  0
    7.4600   -0.6450   13.1220 C   0  0  0  0  0  0  0  0  0  0  0  0
    7.8210    1.7650   12.7700 C   0  0  0  0  0  0  0  0  0  0  0  0
    4.3520    0.1650   15.1590 C   0  0  0  0  0  0  0  0  0  0  0  0
    5.2490   -0.7440   16.0280 C   0  0  1  0  0  0  0  0  0  0  0  0
    5.1610   -0.2730   17.3680 O   0  0  0  0  0  0  0  0  0  0  0  0
    4.8990   -2.2630   15.9460 C   0  0  1  0  0  0  0  0  0  0  0  0
    5.9330   -3.0320   16.6320 N   0  0  0  0  0  0  0  0  0  0  0  0
    6.9960   -3.6030   16.0240 C   0  0  0  0  0  0  0  0  0  0  0  0
    7.1520   -3.6760   14.8170 O   0  0  0  0  0  0  0  0  0  0  0  0
    7.8410   -4.0650   16.9700 O   0  0  0  0  0  0  0  0  0  0  0  0
    8.7990   -5.0880   16.6450 C   0  0  1  0  0  0  0  0  0  0  0  0
   10.0400   -4.8190   17.5020 C   0  0  0  0  0  0  0  0  0  0  0  0
    9.8270   -5.5590   18.7250 O   0  0  0  0  0  0  0  0  0  0  0  0
    8.9840   -6.7020   18.5040 C   0  0  1  0  0  0  0  0  0  0  0  0
    7.9040   -6.6770   19.4650 O   0  0  0  0  0  0  0  0  0  0  0  0
    6.6920   -6.1500   18.9010 C   0  0  0  0  0  0  0  0  0  0  0  0
    6.7840   -6.5950   17.4460 C   0  0  0  0  0  0  0  0  0  0  0  0
    8.3020   -6.4730   17.1460 C   0  0  1  0  0  0  0  0  0  0  0  0
    3.5140   -2.6530   16.5250 C   0  0  0  0  0  0  0  0  0  0  0  0
    3.4570   -5.0480   17.3420 C   0  0  0  0  0  0  0  0  0  0  0  0
    3.2360   -6.4200   17.1330 C   0  0  0  0  0  0  0  0  0  0  0  0
    2.7620   -6.8690   15.8890 C   0  0  0  0  0  0  0  0  0  0  0  0
    2.4990   -5.9450   14.8620 C   0  0  0  0  0  0  0  0  0  0  0  0
    2.7220   -4.5740   15.0800 C   0  0  0  0  0  0  0  0  0  0  0  0
    3.2100   -4.1240   16.3160 C   0  0  0  0  0  0  0  0  0  0  0  0
    1.3040    4.6060    9.6930 H   0  0  0  0  0  0  0  0  0  0  0  0
   -0.2470    4.2010   10.2310 H   0  0  0  0  0  0  0  0  0  0  0  0
    3.0310    3.2410    9.8180 H   0  0  0  0  0  0  0  0  0  0  0  0
    4.0440    1.2330   10.7560 H   0  0  0  0  0  0  0  0  0  0  0  0
    0.6740    0.8140   13.4680 H   0  0  0  0  0  0  0  0  0  0  0  0
   -0.3220    2.8200   12.4520 H   0  0  0  0  0  0  0  0  0  0  0  0
    5.1850    1.9320   13.0920 H   0  0  0  0  0  0  0  0  0  0  0  0
    5.5720    0.6590   11.9340 H   0  0  0  0  0  0  0  0  0  0  0  0
    7.0110    0.9420   14.5720 H   0  0  0  0  0  0  0  0  0  0  0  0
    8.4860   -0.7870   13.4540 H   0  0  0  0  0  0  0  0  0  0  0  0
    6.8730   -1.4110   13.6310 H   0  0  0  0  0  0  0  0  0  0  0  0
    7.4240   -0.8320   12.0440 H   0  0  0  0  0  0  0  0  0  0  0  0
    8.8350    1.7430   13.1840 H   0  0  0  0  0  0  0  0  0  0  0  0
    7.8880    1.5780   11.6910 H   0  0  0  0  0  0  0  0  0  0  0  0
    7.4400    2.7850   12.9170 H   0  0  0  0  0  0  0  0  0  0  0  0
    3.3120    0.0080   15.4710 H   0  0  0  0  0  0  0  0  0  0  0  0
    4.5790    1.2000   15.4260 H   0  0  0  0  0  0  0  0  0  0  0  0
    6.2890   -0.6480   15.6890 H   0  0  0  0  0  0  0  0  0  0  0  0
    6.0770   -0.0290   17.6520 H   0  0  0  0  0  0  0  0  0  0  0  0
    4.9140   -2.5380   14.8810 H   0  0  0  0  0  0  0  0  0  0  0  0
    5.9650   -3.0430   17.6460 H   0  0  0  0  0  0  0  0  0  0  0  0
    9.0420   -5.0940   15.5670 H   0  0  0  0  0  0  0  0  0  0  0  0
   10.1530   -3.7460   17.6960 H   0  0  0  0  0  0  0  0  0  0  0  0
   10.9380   -5.1800   16.9830 H   0  0  0  0  0  0  0  0  0  0  0  0
    9.5560   -7.6440   18.5570 H   0  0  0  0  0  0  0  0  0  0  0  0
    6.6960   -5.0530   18.9530 H   0  0  0  0  0  0  0  0  0  0  0  0
    5.7950   -6.5310   19.4080 H   0  0  0  0  0  0  0  0  0  0  0  0
    6.1510   -5.9950   16.7780 H   0  0  0  0  0  0  0  0  0  0  0  0
    6.4470   -7.6360   17.3520 H   0  0  0  0  0  0  0  0  0  0  0  0
    8.6300   -7.2540   16.4490 H   0  0  0  0  0  0  0  0  0  0  0  0
    2.7280   -2.0460   16.0650 H   0  0  0  0  0  0  0  0  0  0  0  0
    3.4840   -2.4010   17.5900 H   0  0  0  0  0  0  0  0  0  0  0  0
    3.8460   -4.6980   18.2950 H   0  0  0  0  0  0  0  0  0  0  0  0
    3.4410   -7.1350   17.9300 H   0  0  0  0  0  0  0  0  0  0  0  0
    2.6000   -7.9340   15.7250 H   0  0  0  0  0  0  0  0  0  0  0  0
    2.1280   -6.2890   13.9000 H   0  0  0  0  0  0  0  0  0  0  0  0
    2.5160   -3.8540   14.2910 H   0  0  0  0  0  0  0  0  0  0  0  0
  1  2  1  0  0  0  0
  1 39  1  0  0  0  0
  1 40  1  0  0  0  0
  2  3  2  0  0  0  0
  2  7  1  0  0  0  0
  3  4  1  0  0  0  0
  3 41  1  0  0  0  0
  4  5  2  0  0  0  0
  4 42  1  0  0  0  0
  5  6  1  0  0  0  0
  5  8  1  0  0  0  0
  6  7  2  0  0  0  0
  6 43  1  0  0  0  0
  7 44  1  0  0  0  0
  8  9  2  0  0  0  0
  8 10  2  0  0  0  0
  8 11  1  0  0  0  0
 11 12  1  0  0  0  0
 11 16  1  0  0  0  0
 12 13  1  0  0  0  0
 12 45  1  0  0  0  0
 12 46  1  0  0  0  0
 13 14  1  0  0  0  0
 13 15  1  0  0  0  0
 13 47  1  0  0  0  0
 14 48  1  0  0  0  0
 14 49  1  0  0  0  0
 14 50  1  0  0  0  0
 15 51  1  0  0  0  0
 15 52  1  0  0  0  0
 15 53  1  0  0  0  0
 16 17  1  0  0  0  0
 16 54  1  0  0  0  0
 16 55  1  0  0  0  0
 17 18  1  0  0  0  0
 17 19  1  0  0  0  0
 17 56  1  6  0  0  0
 18 57  1  0  0  0  0
 19 20  1  0  0  0  0
 19 32  1  0  0  0  0
 19 58  1  6  0  0  0
 20 21  1  0  0  0  0
 20 59  1  0  0  0  0
 21 22  2  0  0  0  0
 21 23  1  0  0  0  0
 23 24  1  0  0  0  0
 24 25  1  0  0  0  0
 24 31  1  0  0  0  0
 24 60  1  6  0  0  0
 25 26  1  0  0  0  0
 25 61  1  0  0  0  0
 25 62  1  0  0  0  0
 26 27  1  0  0  0  0
 27 28  1  0  0  0  0
 27 31  1  0  0  0  0
 27 63  1  1  0  0  0
 28 29  1  0  0  0  0
 29 30  1  0  0  0  0
 29 64  1  0  0  0  0
 29 65  1  0  0  0  0
 30 31  1  0  0  0  0
 30 66  1  0  0  0  0
 30 67  1  0  0  0  0
 31 68  1  6  0  0  0
 32 38  1  0  0  0  0
 32 69  1  0  0  0  0
 32 70  1  0  0  0  0
 33 34  2  0  0  0  0
 33 38  1  0  0  0  0
 33 71  1  0  0  0  0
 34 35  1  0  0  0  0
 34 72  1  0  0  0  0
 35 36  2  0  0  0  0
 35 73  1  0  0  0  0
 36 37  1  0  0  0  0
 36 74  1  0  0  0  0
 37 38  2  0  0  0  0
 37 75  1  0  0  0  0
M  END
>  <charge>
0

>  <KI_NM>
0.0053

>  <number_of_rotatable_bonds>
13

>  <lm5_entropy_jk>
43.32186921337585

>  <ligand_crystal_conformation>
A

$$$$
