1T3R
 OpenBabel11252210453D

 75 78  0  0  1  0  0  0  0  0999 V2000
   -0.3860    2.9090   11.0020 N   0  0  0  0  0  0  0  0  0  0  0  0
    0.4730    1.9440   11.4270 C   0  0  0  0  0  0  0  0  0  0  0  0
    1.6260    1.6600   10.7120 C   0  0  0  0  0  0  0  0  0  0  0  0
    2.5230    0.6900   11.1610 C   0  0  0  0  0  0  0  0  0  0  0  0
    2.2170    0.0290   12.3440 C   0  0  0  0  0  0  0  0  0  0  0  0
    1.0580    0.2830   13.0680 C   0  0  0  0  0  0  0  0  0  0  0  0
    0.1880    1.2560   12.5910 C   0  0  0  0  0  0  0  0  0  0  0  0
    3.3290   -1.1450   12.9960 S   0  0  0  0  0  0  0  0  0  0  0  0
    4.2550   -1.7050   12.0070 O   0  0  0  0  0  0  0  0  0  0  0  0
    2.5760   -2.0010   13.9090 O   0  0  0  0  0  0  0  0  0  0  0  0
    4.2870   -0.1290   13.9970 N   0  0  0  0  0  0  0  0  0  0  0  0
    5.1400    0.9700   13.4020 C   0  0  0  0  0  0  0  0  0  0  0  0
    6.6510    0.7950   13.6650 C   0  0  0  0  0  0  0  0  0  0  0  0
    7.1650   -0.5200   13.0650 C   0  0  0  0  0  0  0  0  0  0  0  0
    7.4260    1.9280   12.9910 C   0  0  0  0  0  0  0  0  0  0  0  0
    4.1020   -0.0940   15.4880 C   0  0  0  0  0  0  0  0  0  0  0  0
    5.0920   -0.9950   16.2600 C   0  0  1  0  0  0  0  0  0  0  0  0
    5.1260   -0.5060   17.5910 O   0  0  0  0  0  0  0  0  0  0  0  0
    4.7880   -2.5330   16.2610 C   0  0  1  0  0  0  0  0  0  0  0  0
    5.9050   -3.2400   16.8890 N   0  0  0  0  0  0  0  0  0  0  0  0
    6.9670   -3.7460   16.2250 C   0  0  0  0  0  0  0  0  0  0  0  0
    7.0570   -3.8290   15.0100 O   0  0  0  0  0  0  0  0  0  0  0  0
    7.8640   -4.1860   17.1370 O   0  0  0  0  0  0  0  0  0  0  0  0
    8.7960   -5.2390   16.8280 C   0  0  1  0  0  0  0  0  0  0  0  0
   10.0500   -4.9960   17.6860 C   0  0  0  0  0  0  0  0  0  0  0  0
    9.8250   -5.7060   18.9290 O   0  0  0  0  0  0  0  0  0  0  0  0
    8.9480   -6.8300   18.7180 C   0  0  1  0  0  0  0  0  0  0  0  0
    7.8790   -6.7570   19.6860 O   0  0  0  0  0  0  0  0  0  0  0  0
    6.6830   -6.2020   19.1150 C   0  0  0  0  0  0  0  0  0  0  0  0
    6.7450   -6.6890   17.6670 C   0  0  0  0  0  0  0  0  0  0  0  0
    8.2630   -6.6040   17.3520 C   0  0  1  0  0  0  0  0  0  0  0  0
    3.4820   -2.9300   16.9950 C   0  0  0  0  0  0  0  0  0  0  0  0
    3.4240   -5.2300   18.0540 C   0  0  0  0  0  0  0  0  0  0  0  0
    3.1670   -6.6100   17.9930 C   0  0  0  0  0  0  0  0  0  0  0  0
    2.6710   -7.1750   16.8070 C   0  0  0  0  0  0  0  0  0  0  0  0
    2.4270   -6.3600   15.6890 C   0  0  0  0  0  0  0  0  0  0  0  0
    2.7000   -4.9840   15.7550 C   0  0  0  0  0  0  0  0  0  0  0  0
    3.2000   -4.4170   16.9340 C   0  0  0  0  0  0  0  0  0  0  0  0
   -0.2530    3.3260   10.0910 H   0  0  0  0  0  0  0  0  0  0  0  0
   -1.2410    3.0560   11.5300 H   0  0  0  0  0  0  0  0  0  0  0  0
    1.8440    2.2030    9.7980 H   0  0  0  0  0  0  0  0  0  0  0  0
    3.4400    0.4790   10.6060 H   0  0  0  0  0  0  0  0  0  0  0  0
    0.8210   -0.2580   13.9870 H   0  0  0  0  0  0  0  0  0  0  0  0
   -0.7220    1.4800   13.1340 H   0  0  0  0  0  0  0  0  0  0  0  0
    4.8270    1.9530   13.7810 H   0  0  0  0  0  0  0  0  0  0  0  0
    5.0140    1.0210   12.3100 H   0  0  0  0  0  0  0  0  0  0  0  0
    6.8480    0.8310   14.7490 H   0  0  0  0  0  0  0  0  0  0  0  0
    8.2520   -0.6060   13.1730 H   0  0  0  0  0  0  0  0  0  0  0  0
    6.7200   -1.3830   13.5730 H   0  0  0  0  0  0  0  0  0  0  0  0
    6.9210   -0.5950   12.0000 H   0  0  0  0  0  0  0  0  0  0  0  0
    8.4990    1.8500   13.2070 H   0  0  0  0  0  0  0  0  0  0  0  0
    7.3050    1.9140   11.9000 H   0  0  0  0  0  0  0  0  0  0  0  0
    7.0920    2.9080   13.3550 H   0  0  0  0  0  0  0  0  0  0  0  0
    3.0760   -0.3760   15.7690 H   0  0  0  0  0  0  0  0  0  0  0  0
    4.2440    0.9320   15.8500 H   0  0  0  0  0  0  0  0  0  0  0  0
    6.0870   -0.8720   15.8070 H   0  0  0  0  0  0  0  0  0  0  0  0
    6.0260   -0.0930   17.6960 H   0  0  0  0  0  0  0  0  0  0  0  0
    4.7090   -2.8620   15.2130 H   0  0  0  0  0  0  0  0  0  0  0  0
    5.9790   -3.2930   17.8970 H   0  0  0  0  0  0  0  0  0  0  0  0
    9.0380   -5.2630   15.7510 H   0  0  0  0  0  0  0  0  0  0  0  0
   10.2060   -3.9240   17.8580 H   0  0  0  0  0  0  0  0  0  0  0  0
   10.9360   -5.3960   17.1730 H   0  0  0  0  0  0  0  0  0  0  0  0
    9.4880   -7.7890   18.7800 H   0  0  0  0  0  0  0  0  0  0  0  0
    6.7250   -5.1050   19.1430 H   0  0  0  0  0  0  0  0  0  0  0  0
    5.7760   -6.5320   19.6400 H   0  0  0  0  0  0  0  0  0  0  0  0
    6.1020   -6.1020   16.9980 H   0  0  0  0  0  0  0  0  0  0  0  0
    6.3900   -7.7280   17.6090 H   0  0  0  0  0  0  0  0  0  0  0  0
    8.5640   -7.4060   16.6650 H   0  0  0  0  0  0  0  0  0  0  0  0
    2.6340   -2.3980   16.5530 H   0  0  0  0  0  0  0  0  0  0  0  0
    3.5260   -2.5920   18.0350 H   0  0  0  0  0  0  0  0  0  0  0  0
    3.8030   -4.7890   18.9700 H   0  0  0  0  0  0  0  0  0  0  0  0
    3.3490   -7.2380   18.8630 H   0  0  0  0  0  0  0  0  0  0  0  0
    2.4710   -8.2450   16.7610 H   0  0  0  0  0  0  0  0  0  0  0  0
    2.0250   -6.7890   14.7770 H   0  0  0  0  0  0  0  0  0  0  0  0
    2.5120   -4.3440   14.8960 H   0  0  0  0  0  0  0  0  0  0  0  0
  1  2  1  0  0  0  0
  1 39  1  0  0  0  0
  1 40  1  0  0  0  0
  2  3  2  0  0  0  0
  2  7  1  0  0  0  0
  3  4  1  0  0  0  0
  3 41  1  0  0  0  0
  4  5  2  0  0  0  0
  4 42  1  0  0  0  0
  5  6  1  0  0  0  0
  5  8  1  0  0  0  0
  6  7  2  0  0  0  0
  6 43  1  0  0  0  0
  7 44  1  0  0  0  0
  8  9  2  0  0  0  0
  8 10  2  0  0  0  0
  8 11  1  0  0  0  0
 11 12  1  0  0  0  0
 11 16  1  0  0  0  0
 12 13  1  0  0  0  0
 12 45  1  0  0  0  0
 12 46  1  0  0  0  0
 13 14  1  0  0  0  0
 13 15  1  0  0  0  0
 13 47  1  0  0  0  0
 14 48  1  0  0  0  0
 14 49  1  0  0  0  0
 14 50  1  0  0  0  0
 15 51  1  0  0  0  0
 15 52  1  0  0  0  0
 15 53  1  0  0  0  0
 16 17  1  0  0  0  0
 16 54  1  0  0  0  0
 16 55  1  0  0  0  0
 17 18  1  0  0  0  0
 17 19  1  0  0  0  0
 17 56  1  6  0  0  0
 18 57  1  0  0  0  0
 19 20  1  0  0  0  0
 19 32  1  0  0  0  0
 19 58  1  6  0  0  0
 20 21  1  0  0  0  0
 20 59  1  0  0  0  0
 21 22  2  0  0  0  0
 21 23  1  0  0  0  0
 23 24  1  0  0  0  0
 24 25  1  0  0  0  0
 24 31  1  0  0  0  0
 24 60  1  6  0  0  0
 25 26  1  0  0  0  0
 25 61  1  0  0  0  0
 25 62  1  0  0  0  0
 26 27  1  0  0  0  0
 27 28  1  0  0  0  0
 27 31  1  0  0  0  0
 27 63  1  1  0  0  0
 28 29  1  0  0  0  0
 29 30  1  0  0  0  0
 29 64  1  0  0  0  0
 29 65  1  0  0  0  0
 30 31  1  0  0  0  0
 30 66  1  0  0  0  0
 30 67  1  0  0  0  0
 31 68  1  6  0  0  0
 32 38  1  0  0  0  0
 32 69  1  0  0  0  0
 32 70  1  0  0  0  0
 33 34  2  0  0  0  0
 33 38  1  0  0  0  0
 33 71  1  0  0  0  0
 34 35  1  0  0  0  0
 34 72  1  0  0  0  0
 35 36  2  0  0  0  0
 35 73  1  0  0  0  0
 36 37  1  0  0  0  0
 36 74  1  0  0  0  0
 37 38  2  0  0  0  0
 37 75  1  0  0  0  0
M  END
>  <charge>
0

>  <KI_NM>
0.0053

>  <number_of_rotatable_bonds>
13

>  <lm5_entropy_jk>
43.32186921337585

>  <ligand_crystal_conformation>
A

$$$$
