JAK1_1
 OpenBabel11252210453D

 42 45  0  0  0  0  0  0  0  0999 V2000
  -14.9860   29.1090   -2.6780 C   0  0  0  0  0  0  0  0  0  0  0  0
  -14.6450   29.7390   -1.3180 C   0  0  0  0  0  0  0  0  0  0  0  0
  -13.4070   30.6660   -1.4860 C   0  0  0  0  0  0  0  0  0  0  0  0
  -13.7560   31.8760   -2.3630 C   0  0  0  0  0  0  0  0  0  0  0  0
  -14.8340   32.6430   -1.6900 N   0  0  0  0  0  0  0  0  0  0  0  0
  -16.0870   31.8800   -1.4810 C   0  0  0  0  0  0  0  0  0  0  0  0
  -15.8200   30.5590   -0.7260 C   0  0  0  0  0  0  0  0  0  0  0  0
  -14.7960   34.3300   -1.7490 S   0  0  0  0  0  0  0  0  0  0  0  0
  -15.1540   34.8780   -0.4580 O   0  0  0  0  0  0  0  0  0  0  0  0
  -13.4010   34.5950   -2.1760 O   0  0  0  0  0  0  0  0  0  0  0  0
  -15.8940   34.8580   -2.9600 C   0  0  0  0  0  0  0  0  0  0  0  0
  -14.3000   28.6510   -0.3200 N   0  0  0  0  0  0  0  0  0  0  0  0
  -13.0760   28.5600    0.4270 C   0  0  0  0  0  0  0  0  0  0  0  0
  -12.8990   27.3530    0.9760 N   0  0  0  0  0  0  0  0  0  0  0  0
  -14.0170   26.5940    0.6120 C   0  0  0  0  0  0  0  0  0  0  0  0
  -14.9300   27.4050   -0.1570 C   0  0  0  0  0  0  0  0  0  0  0  0
  -16.1410   26.8140   -0.5820 C   0  0  0  0  0  0  0  0  0  0  0  0
  -17.3300   27.1930   -1.2820 C   0  0  0  0  0  0  0  0  0  0  0  0
  -18.1110   26.0570   -1.4370 C   0  0  0  0  0  0  0  0  0  0  0  0
  -17.4590   24.9540   -0.8590 N   0  0  0  0  0  0  0  0  0  0  0  0
  -16.2640   25.4050   -0.2910 C   0  0  0  0  0  0  0  0  0  0  0  0
  -15.3620   24.6040    0.3970 N   0  0  0  0  0  0  0  0  0  0  0  0
  -14.2640   25.2060    0.8510 C   0  0  0  0  0  0  0  0  0  0  0  0
  -13.0980   31.0560   -0.4840 H   0  0  0  0  0  0  0  0  0  0  0  0
  -12.5720   30.1040   -1.9560 H   0  0  0  0  0  0  0  0  0  0  0  0
  -12.8390   32.5230   -2.4770 H   0  0  0  0  0  0  0  0  0  0  0  0
  -14.0910   31.5560   -3.3850 H   0  0  0  0  0  0  0  0  0  0  0  0
  -16.7990   32.5100   -0.8820 H   0  0  0  0  0  0  0  0  0  0  0  0
  -16.5820   31.6530   -2.4680 H   0  0  0  0  0  0  0  0  0  0  0  0
  -16.7510   29.9420   -0.7700 H   0  0  0  0  0  0  0  0  0  0  0  0
  -15.5920   30.7910    0.3430 H   0  0  0  0  0  0  0  0  0  0  0  0
  -12.4030   29.4010    0.5620 H   0  0  0  0  0  0  0  0  0  0  0  0
  -17.6010   28.1650   -1.6510 H   0  0  0  0  0  0  0  0  0  0  0  0
  -19.0580   25.9520   -1.9390 H   0  0  0  0  0  0  0  0  0  0  0  0
  -13.5310   24.5960    1.4040 H   0  0  0  0  0  0  0  0  0  0  0  0
  -17.8880   24.0340   -0.7230 H   0  0  0  0  0  0  0  0  0  0  0  0
  -15.5830   28.1730   -2.5770 H   0  0  0  0  0  0  0  0  0  0  0  0
  -15.6250   29.8060   -3.2720 H   0  0  0  0  0  0  0  0  0  0  0  0
  -14.0720   28.8690   -3.2600 H   0  0  0  0  0  0  0  0  0  0  0  0
  -15.8540   35.9690   -3.1570 H   0  0  0  0  0  0  0  0  0  0  0  0
  -16.9790   34.6640   -2.6940 H   0  0  0  0  0  0  0  0  0  0  0  0
  -15.7650   34.3620   -3.9610 H   0  0  0  0  0  0  0  0  0  0  0  0
  1  2  1  0  0  0  0
  2  3  1  0  0  0  0
  2  7  1  0  0  0  0
  2 12  1  0  0  0  0
  3  4  1  0  0  0  0
  4  5  1  0  0  0  0
  5  8  1  0  0  0  0
  6  7  1  0  0  0  0
  6  5  1  0  0  0  0
  9  8  2  0  0  0  0
 10  8  2  0  0  0  0
 11  8  1  0  0  0  0
 13 12  1  0  0  0  0
 13 14  2  0  0  0  0
 15 16  2  0  0  0  0
 15 23  1  0  0  0  0
 15 14  1  0  0  0  0
 16 17  1  0  0  0  0
 16 12  1  0  0  0  0
 17 18  1  0  0  0  0
 17 21  2  0  0  0  0
 18 19  2  0  0  0  0
 19 20  1  0  0  0  0
 21 20  1  0  0  0  0
 21 22  1  0  0  0  0
 23 22  2  0  0  0  0
 24  3  1  0  0  0  0
 25  3  1  0  0  0  0
 26  4  1  0  0  0  0
 27  4  1  0  0  0  0
 28  6  1  0  0  0  0
 29  6  1  0  0  0  0
 30  7  1  0  0  0  0
 31  7  1  0  0  0  0
 32 13  1  0  0  0  0
 33 18  1  0  0  0  0
 34 19  1  0  0  0  0
 35 23  1  0  0  0  0
 36 20  1  0  0  0  0
 37  1  1  0  0  0  0
 38  1  1  0  0  0  0
 39  1  1  0  0  0  0
 40 11  1  0  0  0  0
 41 11  1  0  0  0  0
 42 11  1  0  0  0  0
M  END
>  <charge>
0

>  <pKi>
8.77

>  <number_of_rotatable_bonds>
2

>  <lm5_entropy_jk>
32.10319483426943

$$$$
