4E4L
 OpenBabel11252210453D

 42 45  0  0  0  0  0  0  0  0999 V2000
  -15.1830   29.3560   -2.8750 C   0  0  0  0  0  0  0  0  0  0  0  0
  -14.9770   29.9400   -1.4760 C   0  0  0  0  0  0  0  0  0  0  0  0
  -13.9890   31.0870   -1.6700 C   0  0  0  0  0  0  0  0  0  0  0  0
  -14.5320   32.2490   -2.5410 C   0  0  0  0  0  0  0  0  0  0  0  0
  -15.7430   32.8190   -1.8870 N   0  0  0  0  0  0  0  0  0  0  0  0
  -16.8080   31.7960   -1.7140 C   0  0  0  0  0  0  0  0  0  0  0  0
  -16.2320   30.5960   -0.8980 C   0  0  0  0  0  0  0  0  0  0  0  0
  -15.6900   34.1900   -0.9230 S   0  0  0  0  0  0  0  0  0  0  0  0
  -16.6770   34.1220    0.1140 O   0  0  0  0  0  0  0  0  0  0  0  0
  -14.2990   34.4870   -0.6380 O   0  0  0  0  0  0  0  0  0  0  0  0
  -16.2270   35.2660   -1.9680 C   0  0  0  0  0  0  0  0  0  0  0  0
  -14.4570   28.9110   -0.5500 N   0  0  0  0  0  0  0  0  0  0  0  0
  -13.2220   28.9090    0.1540 C   0  0  0  0  0  0  0  0  0  0  0  0
  -12.9230   27.7270    0.7250 N   0  0  0  0  0  0  0  0  0  0  0  0
  -14.0000   26.9730    0.4390 C   0  0  0  0  0  0  0  0  0  0  0  0
  -14.9460   27.6470   -0.2720 C   0  0  0  0  0  0  0  0  0  0  0  0
  -16.1280   26.9700   -0.6390 C   0  0  0  0  0  0  0  0  0  0  0  0
  -17.3100   27.3230   -1.4130 C   0  0  0  0  0  0  0  0  0  0  0  0
  -18.0800   26.1820   -1.5130 C   0  0  0  0  0  0  0  0  0  0  0  0
  -17.4190   25.1710   -0.8060 N   0  0  0  0  0  0  0  0  0  0  0  0
  -16.2450   25.6410   -0.2860 C   0  0  0  0  0  0  0  0  0  0  0  0
  -15.3100   24.9500    0.4070 N   0  0  0  0  0  0  0  0  0  0  0  0
  -14.1890   25.6210    0.7780 C   0  0  0  0  0  0  0  0  0  0  0  0
  -13.7090   31.4770   -0.6860 H   0  0  0  0  0  0  0  0  0  0  0  0
  -13.0910   30.6590   -2.1240 H   0  0  0  0  0  0  0  0  0  0  0  0
  -13.7430   32.9960   -2.6920 H   0  0  0  0  0  0  0  0  0  0  0  0
  -14.7870   31.8830   -3.5500 H   0  0  0  0  0  0  0  0  0  0  0  0
  -17.7050   32.2340   -1.2430 H   0  0  0  0  0  0  0  0  0  0  0  0
  -17.1770   31.4420   -2.6870 H   0  0  0  0  0  0  0  0  0  0  0  0
  -16.9830   29.8210   -0.7430 H   0  0  0  0  0  0  0  0  0  0  0  0
  -15.9830   30.9280    0.1170 H   0  0  0  0  0  0  0  0  0  0  0  0
  -12.5760   29.7780    0.1990 H   0  0  0  0  0  0  0  0  0  0  0  0
  -17.5650   28.2370   -1.9350 H   0  0  0  0  0  0  0  0  0  0  0  0
  -19.0110   26.0060   -2.0420 H   0  0  0  0  0  0  0  0  0  0  0  0
  -13.4290   25.0660    1.3330 H   0  0  0  0  0  0  0  0  0  0  0  0
  -17.7610   24.2250   -0.6740 H   0  0  0  0  0  0  0  0  0  0  0  0
  -15.5560   28.3340   -2.8270 H   0  0  0  0  0  0  0  0  0  0  0  0
  -15.9110   29.9180   -3.4570 H   0  0  0  0  0  0  0  0  0  0  0  0
  -14.2500   29.2980   -3.4440 H   0  0  0  0  0  0  0  0  0  0  0  0
  -16.1200   36.1510   -1.3540 H   0  0  0  0  0  0  0  0  0  0  0  0
  -17.2250   34.8500   -2.0690 H   0  0  0  0  0  0  0  0  0  0  0  0
  -15.5370   35.1100   -2.7850 H   0  0  0  0  0  0  0  0  0  0  0  0
  1  2  1  0  0  0  0
  2  3  1  0  0  0  0
  2  7  1  0  0  0  0
  2 12  1  0  0  0  0
  3  4  1  0  0  0  0
  4  5  1  0  0  0  0
  5  8  1  0  0  0  0
  6  7  1  0  0  0  0
  6  5  1  0  0  0  0
  9  8  2  0  0  0  0
 10  8  2  0  0  0  0
 11  8  1  0  0  0  0
 13 12  1  0  0  0  0
 13 14  2  0  0  0  0
 15 16  2  0  0  0  0
 15 23  1  0  0  0  0
 15 14  1  0  0  0  0
 16 17  1  0  0  0  0
 16 12  1  0  0  0  0
 17 18  1  0  0  0  0
 17 21  2  0  0  0  0
 18 19  2  0  0  0  0
 19 20  1  0  0  0  0
 21 20  1  0  0  0  0
 21 22  1  0  0  0  0
 23 22  2  0  0  0  0
 24  3  1  0  0  0  0
 25  3  1  0  0  0  0
 26  4  1  0  0  0  0
 27  4  1  0  0  0  0
 28  6  1  0  0  0  0
 29  6  1  0  0  0  0
 30  7  1  0  0  0  0
 31  7  1  0  0  0  0
 32 13  1  0  0  0  0
 33 18  1  0  0  0  0
 34 19  1  0  0  0  0
 35 23  1  0  0  0  0
 36 20  1  0  0  0  0
 37  1  1  0  0  0  0
 38  1  1  0  0  0  0
 39  1  1  0  0  0  0
 40 11  1  0  0  0  0
 41 11  1  0  0  0  0
 42 11  1  0  0  0  0
M  END
>  <charge>
0

>  <pKi>
8.77

>  <number_of_rotatable_bonds>
2

>  <lm5_entropy_jk>
32.10319483426943

$$$$
