5NXG
 OpenBabel11252210453D

 32 33  0  0  0  0  0  0  0  0999 V2000
   -5.6860    1.2310   16.0390 N   0  5  0  0  0  0  0  0  0  0  0  0
   -5.3110    3.6470   15.4730 C   0  0  0  0  0  0  0  0  0  0  0  0
   -4.7510    2.7070   17.7460 O   0  0  0  0  0  0  0  0  0  0  0  0
   -6.0510    4.8240   15.2690 C   0  0  0  0  0  0  0  0  0  0  0  0
   -3.8680    6.5150   12.7910 N   0  0  0  0  0  0  0  0  0  0  0  0
   -7.1460    2.9550   17.1050 O   0  0  0  0  0  0  0  0  0  0  0  0
   -5.5970    5.7600   14.3330 C   0  0  0  0  0  0  0  0  0  0  0  0
   -0.9480   11.6620    9.9540 N   0  3  0  0  0  0  0  0  0  0  0  0
   -5.6790    7.5530   11.8980 O   0  0  0  0  0  0  0  0  0  0  0  0
   -4.4250    5.5330   13.6130 C   0  0  0  0  0  0  0  0  0  0  0  0
   -0.0870   12.1540   10.6910 O   0  5  0  0  0  0  0  0  0  0  0  0
   -4.4780    7.5280   12.1080 C   0  0  0  0  0  0  0  0  0  0  0  0
   -1.1010   11.9940    8.7740 O   0  0  0  0  0  0  0  0  0  0  0  0
   -3.5520    8.5950   11.5890 C   0  0  0  0  0  0  0  0  0  0  0  0
   -3.7000    9.0280   10.2540 C   0  0  0  0  0  0  0  0  0  0  0  0
   -2.8570   10.0180    9.7210 C   0  0  0  0  0  0  0  0  0  0  0  0
   -1.8510   10.6050   10.5200 C   0  0  0  0  0  0  0  0  0  0  0  0
   -1.7160   10.1890   11.8640 C   0  0  0  0  0  0  0  0  0  0  0  0
   -2.5560    9.1980   12.3980 C   0  0  0  0  0  0  0  0  0  0  0  0
   -3.6980    4.3670   13.8300 C   0  0  0  0  0  0  0  0  0  0  0  0
   -4.1210    3.4170   14.7670 C   0  0  0  0  0  0  0  0  0  0  0  0
   -2.3640    8.8050   14.1040 Cl  0  0  0  0  0  0  0  0  0  0  0  0
   -5.7960    2.5850   16.7700 S   0  0  0  0  0  0  0  0  0  0  0  0
   -2.8620    6.5780   12.8240 H   0  0  0  0  0  0  0  0  0  0  0  0
   -6.9410    5.0460   15.8670 H   0  0  0  0  0  0  0  0  0  0  0  0
   -6.1340    6.6940   14.2090 H   0  0  0  0  0  0  0  0  0  0  0  0
   -4.8570    1.1420   16.6850 H   0  0  0  0  0  0  0  0  0  0  0  0
   -4.4740    8.5870    9.6240 H   0  0  0  0  0  0  0  0  0  0  0  0
   -2.9880   10.3260    8.6820 H   0  0  0  0  0  0  0  0  0  0  0  0
   -0.9620   10.6410   12.5090 H   0  0  0  0  0  0  0  0  0  0  0  0
   -2.7700    4.2070   13.2880 H   0  0  0  0  0  0  0  0  0  0  0  0
   -3.5070    2.5340   14.9570 H   0  0  0  0  0  0  0  0  0  0  0  0
  1 23  1  0  0  0  0
  2  4  2  0  0  0  0
  2 21  1  0  0  0  0
  2 23  1  0  0  0  0
  3 23  2  0  0  0  0
  4  7  1  0  0  0  0
  5 10  1  0  0  0  0
  5 12  1  0  0  0  0
  6 23  2  0  0  0  0
  7 10  2  0  0  0  0
  8 11  1  0  0  0  0
  8 13  2  0  0  0  0
  8 17  1  0  0  0  0
  9 12  2  0  0  0  0
 10 20  1  0  0  0  0
 12 14  1  0  0  0  0
 14 15  2  0  0  0  0
 14 19  1  0  0  0  0
 15 16  1  0  0  0  0
 16 17  2  0  0  0  0
 17 18  1  0  0  0  0
 18 19  2  0  0  0  0
 20 21  2  0  0  0  0
 22 19  1  0  0  0  0
 24  5  1  0  0  0  0
 25  4  1  0  0  0  0
 26  7  1  0  0  0  0
 27  1  1  0  0  0  0
 28 15  1  0  0  0  0
 29 16  1  0  0  0  0
 30 18  1  0  0  0  0
 31 20  1  0  0  0  0
 32 21  1  0  0  0  0
M  CHG  3   1  -1   8   1  11  -1
M  END
>  <deltaG_kcalmol>
-11.7

>  <number_of_rotatable_bonds>
5

>  <charge>
-1

>  <lm5_entropy_jk>
22.88451973684482

$$$$
