5NXG
 OpenBabel11252210453D

 32 33  0  0  0  0  0  0  0  0999 V2000
   -5.8870    1.3220   16.1070 N   0  5  0  0  0  0  0  0  0  0  0  0
   -5.4810    3.7630   15.6710 C   0  0  0  0  0  0  0  0  0  0  0  0
   -5.0350    2.6810   17.9030 O   0  0  0  0  0  0  0  0  0  0  0  0
   -6.2120    4.9490   15.4830 C   0  0  0  0  0  0  0  0  0  0  0  0
   -3.9510    6.7030   13.1220 N   0  0  0  0  0  0  0  0  0  0  0  0
   -7.4010    2.9940   17.1770 O   0  0  0  0  0  0  0  0  0  0  0  0
   -5.7190    5.9180   14.6020 C   0  0  0  0  0  0  0  0  0  0  0  0
   -0.7850   11.4800    9.9990 N   0  3  0  0  0  0  0  0  0  0  0  0
   -5.7390    7.7700   12.2110 O   0  0  0  0  0  0  0  0  0  0  0  0
   -4.5240    5.7120   13.9200 C   0  0  0  0  0  0  0  0  0  0  0  0
    0.1110   11.9570   10.7010 O   0  5  0  0  0  0  0  0  0  0  0  0
   -4.5380    7.7100   12.4120 C   0  0  0  0  0  0  0  0  0  0  0  0
   -0.9130   11.7370    8.7980 O   0  0  0  0  0  0  0  0  0  0  0  0
   -3.5740    8.7080   11.8340 C   0  0  0  0  0  0  0  0  0  0  0  0
   -3.7130    9.0730   10.4780 C   0  0  0  0  0  0  0  0  0  0  0  0
   -2.8120    9.9690    9.8790 C   0  0  0  0  0  0  0  0  0  0  0  0
   -1.7560   10.5280   10.6340 C   0  0  0  0  0  0  0  0  0  0  0  0
   -1.6300   10.1820   11.9980 C   0  0  0  0  0  0  0  0  0  0  0  0
   -2.5290    9.2860   12.5970 C   0  0  0  0  0  0  0  0  0  0  0  0
   -3.8010    4.5440   14.1310 C   0  0  0  0  0  0  0  0  0  0  0  0
   -4.2580    3.5600   15.0130 C   0  0  0  0  0  0  0  0  0  0  0  0
   -2.3310    8.9710   14.3180 Cl  0  0  0  0  0  0  0  0  0  0  0  0
   -6.0420    2.6410   16.8810 S   0  0  0  0  0  0  0  0  0  0  0  0
   -2.9430    6.7380   13.1410 H   0  0  0  0  0  0  0  0  0  0  0  0
   -7.1290    5.1480   16.0470 H   0  0  0  0  0  0  0  0  0  0  0  0
   -6.2490    6.8570   14.4870 H   0  0  0  0  0  0  0  0  0  0  0  0
   -5.0670    1.2770   16.7700 H   0  0  0  0  0  0  0  0  0  0  0  0
   -4.5210    8.6450    9.8800 H   0  0  0  0  0  0  0  0  0  0  0  0
   -2.9350   10.2250    8.8250 H   0  0  0  0  0  0  0  0  0  0  0  0
   -0.8330   10.6120   12.6050 H   0  0  0  0  0  0  0  0  0  0  0  0
   -2.8560    4.4010   13.6150 H   0  0  0  0  0  0  0  0  0  0  0  0
   -3.6540    2.6670   15.1870 H   0  0  0  0  0  0  0  0  0  0  0  0
  1 23  1  0  0  0  0
  2  4  2  0  0  0  0
  2 21  1  0  0  0  0
  2 23  1  0  0  0  0
  3 23  2  0  0  0  0
  4  7  1  0  0  0  0
  5 10  1  0  0  0  0
  5 12  1  0  0  0  0
  6 23  2  0  0  0  0
  7 10  2  0  0  0  0
  8 11  1  0  0  0  0
  8 13  2  0  0  0  0
  8 17  1  0  0  0  0
  9 12  2  0  0  0  0
 10 20  1  0  0  0  0
 12 14  1  0  0  0  0
 14 15  2  0  0  0  0
 14 19  1  0  0  0  0
 15 16  1  0  0  0  0
 16 17  2  0  0  0  0
 17 18  1  0  0  0  0
 18 19  2  0  0  0  0
 20 21  2  0  0  0  0
 22 19  1  0  0  0  0
 24  5  1  0  0  0  0
 25  4  1  0  0  0  0
 26  7  1  0  0  0  0
 27  1  1  0  0  0  0
 28 15  1  0  0  0  0
 29 16  1  0  0  0  0
 30 18  1  0  0  0  0
 31 20  1  0  0  0  0
 32 21  1  0  0  0  0
M  CHG  3   1  -1   8   1  11  -1
M  END
>  <deltaG_kcalmol>
-11.7

>  <number_of_rotatable_bonds>
5

>  <charge>
-1

>  <lm5_entropy_jk>
22.88451973684482

$$$$
